<routes>
        <vType id="typeWE" accel="0.8" decel="4.5" sigma="0.5" length="5" minGap="2.5" maxSpeed="16.67" guiShape="passenger"/>
        <vType id="typeNS" accel="0.8" decel="4.5" sigma="0.5" length="7" minGap="3" maxSpeed="25" guiShape="bus"/>

        <route id="right" edges="51o 1i 2o 52i" />
        <route id="left" edges="52o 2i 1o 51i" />
        <route id="down" edges="54o 4i 3o 53i" />
        <route id="up" edges="53o 3i 4o 54i
        " />
    <vehicle id="left_0" type="typeWE" route="left" depart="0" />
    <vehicle id="up_1" type="typeNS" route="up" depart="1" color="1,0,0"/>
    <vehicle id="left_2" type="typeWE" route="left" depart="2" />
    <vehicle id="right_3" type="typeWE" route="right" depart="3" />
    <vehicle id="up_4" type="typeNS" route="up" depart="4" color="1,0,0"/>
    <vehicle id="down_5" type="typeNS" route="down" depart="6" color="1,0,0"/>
    <vehicle id="up_6" type="typeNS" route="up" depart="6" color="1,0,0"/>
    <vehicle id="left_7" type="typeWE" route="left" depart="10" />
    <vehicle id="right_8" type="typeWE" route="right" depart="11" />
    <vehicle id="up_9" type="typeNS" route="up" depart="16" color="1,0,0"/>
    <vehicle id="right_10" type="typeWE" route="right" depart="22" />
    <vehicle id="left_11" type="typeWE" route="left" depart="22" />
    <vehicle id="down_12" type="typeNS" route="down" depart="23" color="1,0,0"/>
    <vehicle id="right_13" type="typeWE" route="right" depart="25" />
    <vehicle id="right_14" type="typeWE" route="right" depart="31" />
    <vehicle id="down_15" type="typeNS" route="down" depart="31" color="1,0,0"/>
    <vehicle id="up_16" type="typeNS" route="up" depart="32" color="1,0,0"/>
    <vehicle id="down_17" type="typeNS" route="down" depart="33" color="1,0,0"/>
    <vehicle id="right_18" type="typeWE" route="right" depart="34" />
    <vehicle id="right_19" type="typeWE" route="right" depart="40" />
    <vehicle id="left_20" type="typeWE" route="left" depart="41" />
    <vehicle id="right_21" type="typeWE" route="right" depart="44" />
    <vehicle id="up_22" type="typeNS" route="up" depart="45" color="1,0,0"/>
    <vehicle id="left_23" type="typeWE" route="left" depart="49" />
    <vehicle id="up_24" type="typeNS" route="up" depart="51" color="1,0,0"/>
    <vehicle id="right_25" type="typeWE" route="right" depart="56" />
    <vehicle id="down_26" type="typeNS" route="down" depart="57" color="1,0,0"/>
    <vehicle id="right_27" type="typeWE" route="right" depart="63" />
    <vehicle id="right_28" type="typeWE" route="right" depart="64" />
    <vehicle id="left_29" type="typeWE" route="left" depart="67" />
    <vehicle id="up_30" type="typeNS" route="up" depart="71" color="1,0,0"/>
    <vehicle id="down_31" type="typeNS" route="down" depart="72" color="1,0,0"/>
    <vehicle id="left_32" type="typeWE" route="left" depart="74" />
    <vehicle id="down_33" type="typeNS" route="down" depart="74" color="1,0,0"/>
    <vehicle id="right_34" type="typeWE" route="right" depart="81" />
    <vehicle id="down_35" type="typeNS" route="down" depart="85" color="1,0,0"/>
    <vehicle id="right_36" type="typeWE" route="right" depart="92" />
    <vehicle id="up_37" type="typeNS" route="up" depart="93" color="1,0,0"/>
    <vehicle id="down_38" type="typeNS" route="down" depart="98" color="1,0,0"/>
    <vehicle id="down_39" type="typeNS" route="down" depart="101" color="1,0,0"/>
    <vehicle id="up_40" type="typeNS" route="up" depart="103" color="1,0,0"/>
    <vehicle id="up_41" type="typeNS" route="up" depart="104" color="1,0,0"/>
    <vehicle id="up_42" type="typeNS" route="up" depart="106" color="1,0,0"/>
    <vehicle id="up_43" type="typeNS" route="up" depart="108" color="1,0,0"/>
    <vehicle id="right_44" type="typeWE" route="right" depart="115" />
    <vehicle id="left_45" type="typeWE" route="left" depart="117" />
    <vehicle id="left_46" type="typeWE" route="left" depart="120" />
    <vehicle id="left_47" type="typeWE" route="left" depart="123" />
    <vehicle id="left_48" type="typeWE" route="left" depart="125" />
    <vehicle id="right_49" type="typeWE" route="right" depart="126" />
    <vehicle id="right_50" type="typeWE" route="right" depart="127" />
    <vehicle id="left_51" type="typeWE" route="left" depart="129" />
    <vehicle id="down_52" type="typeNS" route="down" depart="129" color="1,0,0"/>
    <vehicle id="right_53" type="typeWE" route="right" depart="132" />
    <vehicle id="up_54" type="typeNS" route="up" depart="135" color="1,0,0"/>
    <vehicle id="left_55" type="typeWE" route="left" depart="137" />
    <vehicle id="up_56" type="typeNS" route="up" depart="145" color="1,0,0"/>
    <vehicle id="left_57" type="typeWE" route="left" depart="147" />
    <vehicle id="down_58" type="typeNS" route="down" depart="149" color="1,0,0"/>
    <vehicle id="right_59" type="typeWE" route="right" depart="150" />
    <vehicle id="right_60" type="typeWE" route="right" depart="152" />
    <vehicle id="left_61" type="typeWE" route="left" depart="159" />
    <vehicle id="up_62" type="typeNS" route="up" depart="162" color="1,0,0"/>
    <vehicle id="right_63" type="typeWE" route="right" depart="164" />
    <vehicle id="down_64" type="typeNS" route="down" depart="164" color="1,0,0"/>
    <vehicle id="up_65" type="typeNS" route="up" depart="170" color="1,0,0"/>
    <vehicle id="right_66" type="typeWE" route="right" depart="171" />
    <vehicle id="up_67" type="typeNS" route="up" depart="175" color="1,0,0"/>
    <vehicle id="up_68" type="typeNS" route="up" depart="178" color="1,0,0"/>
    <vehicle id="right_69" type="typeWE" route="right" depart="179" />
    <vehicle id="right_70" type="typeWE" route="right" depart="180" />
    <vehicle id="right_71" type="typeWE" route="right" depart="182" />
    <vehicle id="up_72" type="typeNS" route="up" depart="193" color="1,0,0"/>
    <vehicle id="left_73" type="typeWE" route="left" depart="204" />
    <vehicle id="down_74" type="typeNS" route="down" depart="206" color="1,0,0"/>
    <vehicle id="up_75" type="typeNS" route="up" depart="212" color="1,0,0"/>
    <vehicle id="right_76" type="typeWE" route="right" depart="213" />
    <vehicle id="down_77" type="typeNS" route="down" depart="214" color="1,0,0"/>
    <vehicle id="right_78" type="typeWE" route="right" depart="216" />
    <vehicle id="left_79" type="typeWE" route="left" depart="218" />
    <vehicle id="down_80" type="typeNS" route="down" depart="220" color="1,0,0"/>
    <vehicle id="right_81" type="typeWE" route="right" depart="227" />
    <vehicle id="left_82" type="typeWE" route="left" depart="232" />
    <vehicle id="right_83" type="typeWE" route="right" depart="239" />
    <vehicle id="down_84" type="typeNS" route="down" depart="241" color="1,0,0"/>
    <vehicle id="up_85" type="typeNS" route="up" depart="242" color="1,0,0"/>
    <vehicle id="right_86" type="typeWE" route="right" depart="245" />
    <vehicle id="up_87" type="typeNS" route="up" depart="247" color="1,0,0"/>
    <vehicle id="up_88" type="typeNS" route="up" depart="248" color="1,0,0"/>
    <vehicle id="right_89" type="typeWE" route="right" depart="250" />
    <vehicle id="left_90" type="typeWE" route="left" depart="253" />
    <vehicle id="down_91" type="typeNS" route="down" depart="254" color="1,0,0"/>
    <vehicle id="down_92" type="typeNS" route="down" depart="256" color="1,0,0"/>
    <vehicle id="left_93" type="typeWE" route="left" depart="258" />
    <vehicle id="down_94" type="typeNS" route="down" depart="258" color="1,0,0"/>
    <vehicle id="up_95" type="typeNS" route="up" depart="259" color="1,0,0"/>
    <vehicle id="left_96" type="typeWE" route="left" depart="262" />
    <vehicle id="up_97" type="typeNS" route="up" depart="263" color="1,0,0"/>
    <vehicle id="left_98" type="typeWE" route="left" depart="265" />
    <vehicle id="down_99" type="typeNS" route="down" depart="265" color="1,0,0"/>
    <vehicle id="right_100" type="typeWE" route="right" depart="266" />
    <vehicle id="up_101" type="typeNS" route="up" depart="272" color="1,0,0"/>
    <vehicle id="down_102" type="typeNS" route="down" depart="273" color="1,0,0"/>
    <vehicle id="left_103" type="typeWE" route="left" depart="281" />
    <vehicle id="left_104" type="typeWE" route="left" depart="283" />
    <vehicle id="up_105" type="typeNS" route="up" depart="284" color="1,0,0"/>
    <vehicle id="right_106" type="typeWE" route="right" depart="287" />
    <vehicle id="left_107" type="typeWE" route="left" depart="287" />
    <vehicle id="left_108" type="typeWE" route="left" depart="291" />
    <vehicle id="right_109" type="typeWE" route="right" depart="292" />
    <vehicle id="down_110" type="typeNS" route="down" depart="293" color="1,0,0"/>
    <vehicle id="down_111" type="typeNS" route="down" depart="295" color="1,0,0"/>
    <vehicle id="right_112" type="typeWE" route="right" depart="296" />
    <vehicle id="left_113" type="typeWE" route="left" depart="296" />
    <vehicle id="left_114" type="typeWE" route="left" depart="298" />
    <vehicle id="up_115" type="typeNS" route="up" depart="299" color="1,0,0"/>
    <vehicle id="right_116" type="typeWE" route="right" depart="309" />
    <vehicle id="right_117" type="typeWE" route="right" depart="310" />
    <vehicle id="right_118" type="typeWE" route="right" depart="311" />
    <vehicle id="down_119" type="typeNS" route="down" depart="311" color="1,0,0"/>
    <vehicle id="left_120" type="typeWE" route="left" depart="315" />
    <vehicle id="right_121" type="typeWE" route="right" depart="320" />
    <vehicle id="right_122" type="typeWE" route="right" depart="329" />
    <vehicle id="down_123" type="typeNS" route="down" depart="330" color="1,0,0"/>
    <vehicle id="left_124" type="typeWE" route="left" depart="343" />
    <vehicle id="down_125" type="typeNS" route="down" depart="343" color="1,0,0"/>
    <vehicle id="up_126" type="typeNS" route="up" depart="344" color="1,0,0"/>
    <vehicle id="up_127" type="typeNS" route="up" depart="347" color="1,0,0"/>
    <vehicle id="right_128" type="typeWE" route="right" depart="348" />
    <vehicle id="left_129" type="typeWE" route="left" depart="350" />
    <vehicle id="right_130" type="typeWE" route="right" depart="352" />
    <vehicle id="left_131" type="typeWE" route="left" depart="354" />
    <vehicle id="up_132" type="typeNS" route="up" depart="354" color="1,0,0"/>
    <vehicle id="left_133" type="typeWE" route="left" depart="357" />
    <vehicle id="left_134" type="typeWE" route="left" depart="359" />
    <vehicle id="down_135" type="typeNS" route="down" depart="361" color="1,0,0"/>
    <vehicle id="down_136" type="typeNS" route="down" depart="362" color="1,0,0"/>
    <vehicle id="right_137" type="typeWE" route="right" depart="363" />
    <vehicle id="left_138" type="typeWE" route="left" depart="369" />
    <vehicle id="down_139" type="typeNS" route="down" depart="370" color="1,0,0"/>
    <vehicle id="left_140" type="typeWE" route="left" depart="372" />
    <vehicle id="right_141" type="typeWE" route="right" depart="374" />
    <vehicle id="left_142" type="typeWE" route="left" depart="376" />
    <vehicle id="down_143" type="typeNS" route="down" depart="376" color="1,0,0"/>
    <vehicle id="down_144" type="typeNS" route="down" depart="384" color="1,0,0"/>
    <vehicle id="up_145" type="typeNS" route="up" depart="385" color="1,0,0"/>
    <vehicle id="right_146" type="typeWE" route="right" depart="389" />
    <vehicle id="down_147" type="typeNS" route="down" depart="390" color="1,0,0"/>
    <vehicle id="left_148" type="typeWE" route="left" depart="392" />
    <vehicle id="down_149" type="typeNS" route="down" depart="395" color="1,0,0"/>
    <vehicle id="right_150" type="typeWE" route="right" depart="402" />
    <vehicle id="left_151" type="typeWE" route="left" depart="402" />
    <vehicle id="right_152" type="typeWE" route="right" depart="406" />
    <vehicle id="left_153" type="typeWE" route="left" depart="406" />
    <vehicle id="down_154" type="typeNS" route="down" depart="410" color="1,0,0"/>
    <vehicle id="left_155" type="typeWE" route="left" depart="414" />
    <vehicle id="up_156" type="typeNS" route="up" depart="415" color="1,0,0"/>
    <vehicle id="up_157" type="typeNS" route="up" depart="419" color="1,0,0"/>
    <vehicle id="up_158" type="typeNS" route="up" depart="423" color="1,0,0"/>
    <vehicle id="left_159" type="typeWE" route="left" depart="430" />
    <vehicle id="up_160" type="typeNS" route="up" depart="433" color="1,0,0"/>
    <vehicle id="down_161" type="typeNS" route="down" depart="434" color="1,0,0"/>
    <vehicle id="up_162" type="typeNS" route="up" depart="436" color="1,0,0"/>
    <vehicle id="down_163" type="typeNS" route="down" depart="450" color="1,0,0"/>
    <vehicle id="up_164" type="typeNS" route="up" depart="451" color="1,0,0"/>
    <vehicle id="up_165" type="typeNS" route="up" depart="454" color="1,0,0"/>
    <vehicle id="right_166" type="typeWE" route="right" depart="459" />
    <vehicle id="down_167" type="typeNS" route="down" depart="465" color="1,0,0"/>
    <vehicle id="down_168" type="typeNS" route="down" depart="468" color="1,0,0"/>
    <vehicle id="left_169" type="typeWE" route="left" depart="469" />
    <vehicle id="up_170" type="typeNS" route="up" depart="475" color="1,0,0"/>
    <vehicle id="down_171" type="typeNS" route="down" depart="476" color="1,0,0"/>
    <vehicle id="right_172" type="typeWE" route="right" depart="477" />
    <vehicle id="down_173" type="typeNS" route="down" depart="479" color="1,0,0"/>
    <vehicle id="right_174" type="typeWE" route="right" depart="481" />
    <vehicle id="right_175" type="typeWE" route="right" depart="483" />
    <vehicle id="down_176" type="typeNS" route="down" depart="483" color="1,0,0"/>
    <vehicle id="left_177" type="typeWE" route="left" depart="484" />
    <vehicle id="up_178" type="typeNS" route="up" depart="484" color="1,0,0"/>
    <vehicle id="left_179" type="typeWE" route="left" depart="490" />
    <vehicle id="down_180" type="typeNS" route="down" depart="490" color="1,0,0"/>
    <vehicle id="down_181" type="typeNS" route="down" depart="494" color="1,0,0"/>
    <vehicle id="left_182" type="typeWE" route="left" depart="495" />
    <vehicle id="right_183" type="typeWE" route="right" depart="496" />
    <vehicle id="down_184" type="typeNS" route="down" depart="497" color="1,0,0"/>
    <vehicle id="right_185" type="typeWE" route="right" depart="501" />
    <vehicle id="up_186" type="typeNS" route="up" depart="508" color="1,0,0"/>
    <vehicle id="down_187" type="typeNS" route="down" depart="512" color="1,0,0"/>
    <vehicle id="right_188" type="typeWE" route="right" depart="517" />
    <vehicle id="down_189" type="typeNS" route="down" depart="525" color="1,0,0"/>
    <vehicle id="up_190" type="typeNS" route="up" depart="525" color="1,0,0"/>
    <vehicle id="right_191" type="typeWE" route="right" depart="528" />
    <vehicle id="right_192" type="typeWE" route="right" depart="530" />
    <vehicle id="down_193" type="typeNS" route="down" depart="530" color="1,0,0"/>
    <vehicle id="down_194" type="typeNS" route="down" depart="531" color="1,0,0"/>
    <vehicle id="right_195" type="typeWE" route="right" depart="533" />
    <vehicle id="right_196" type="typeWE" route="right" depart="538" />
    <vehicle id="left_197" type="typeWE" route="left" depart="538" />
    <vehicle id="right_198" type="typeWE" route="right" depart="540" />
    <vehicle id="down_199" type="typeNS" route="down" depart="540" color="1,0,0"/>
    <vehicle id="up_200" type="typeNS" route="up" depart="541" color="1,0,0"/>
    <vehicle id="right_201" type="typeWE" route="right" depart="542" />
    <vehicle id="right_202" type="typeWE" route="right" depart="543" />
    <vehicle id="right_203" type="typeWE" route="right" depart="545" />
    <vehicle id="left_204" type="typeWE" route="left" depart="548" />
    <vehicle id="left_205" type="typeWE" route="left" depart="550" />
    <vehicle id="down_206" type="typeNS" route="down" depart="552" color="1,0,0"/>
    <vehicle id="down_207" type="typeNS" route="down" depart="553" color="1,0,0"/>
    <vehicle id="left_208" type="typeWE" route="left" depart="555" />
    <vehicle id="down_209" type="typeNS" route="down" depart="557" color="1,0,0"/>
    <vehicle id="right_210" type="typeWE" route="right" depart="558" />
    <vehicle id="down_211" type="typeNS" route="down" depart="559" color="1,0,0"/>
    <vehicle id="right_212" type="typeWE" route="right" depart="562" />
    <vehicle id="right_213" type="typeWE" route="right" depart="563" />
    <vehicle id="left_214" type="typeWE" route="left" depart="576" />
    <vehicle id="down_215" type="typeNS" route="down" depart="579" color="1,0,0"/>
    <vehicle id="up_216" type="typeNS" route="up" depart="580" color="1,0,0"/>
    <vehicle id="down_217" type="typeNS" route="down" depart="582" color="1,0,0"/>
    <vehicle id="down_218" type="typeNS" route="down" depart="585" color="1,0,0"/>
    <vehicle id="up_219" type="typeNS" route="up" depart="593" color="1,0,0"/>
    <vehicle id="right_220" type="typeWE" route="right" depart="596" />
    <vehicle id="right_221" type="typeWE" route="right" depart="601" />
    <vehicle id="right_222" type="typeWE" route="right" depart="606" />
    <vehicle id="down_223" type="typeNS" route="down" depart="606" color="1,0,0"/>
    <vehicle id="right_224" type="typeWE" route="right" depart="609" />
    <vehicle id="left_225" type="typeWE" route="left" depart="609" />
    <vehicle id="left_226" type="typeWE" route="left" depart="613" />
    <vehicle id="down_227" type="typeNS" route="down" depart="619" color="1,0,0"/>
    <vehicle id="right_228" type="typeWE" route="right" depart="629" />
    <vehicle id="up_229" type="typeNS" route="up" depart="630" color="1,0,0"/>
    <vehicle id="right_230" type="typeWE" route="right" depart="634" />
    <vehicle id="up_231" type="typeNS" route="up" depart="635" color="1,0,0"/>
    <vehicle id="up_232" type="typeNS" route="up" depart="640" color="1,0,0"/>
    <vehicle id="right_233" type="typeWE" route="right" depart="642" />
    <vehicle id="down_234" type="typeNS" route="down" depart="643" color="1,0,0"/>
    <vehicle id="up_235" type="typeNS" route="up" depart="646" color="1,0,0"/>
    <vehicle id="right_236" type="typeWE" route="right" depart="649" />
    <vehicle id="left_237" type="typeWE" route="left" depart="651" />
    <vehicle id="down_238" type="typeNS" route="down" depart="654" color="1,0,0"/>
    <vehicle id="left_239" type="typeWE" route="left" depart="659" />
    <vehicle id="down_240" type="typeNS" route="down" depart="659" color="1,0,0"/>
    <vehicle id="right_241" type="typeWE" route="right" depart="660" />
    <vehicle id="left_242" type="typeWE" route="left" depart="660" />
    <vehicle id="right_243" type="typeWE" route="right" depart="662" />
    <vehicle id="left_244" type="typeWE" route="left" depart="665" />
    <vehicle id="left_245" type="typeWE" route="left" depart="666" />
    <vehicle id="down_246" type="typeNS" route="down" depart="666" color="1,0,0"/>
    <vehicle id="up_247" type="typeNS" route="up" depart="671" color="1,0,0"/>
    <vehicle id="down_248" type="typeNS" route="down" depart="672" color="1,0,0"/>
    <vehicle id="left_249" type="typeWE" route="left" depart="673" />
    <vehicle id="left_250" type="typeWE" route="left" depart="676" />
    <vehicle id="left_251" type="typeWE" route="left" depart="680" />
    <vehicle id="left_252" type="typeWE" route="left" depart="682" />
    <vehicle id="up_253" type="typeNS" route="up" depart="683" color="1,0,0"/>
    <vehicle id="right_254" type="typeWE" route="right" depart="687" />
    <vehicle id="up_255" type="typeNS" route="up" depart="688" color="1,0,0"/>
    <vehicle id="up_256" type="typeNS" route="up" depart="690" color="1,0,0"/>
    <vehicle id="down_257" type="typeNS" route="down" depart="691" color="1,0,0"/>
    <vehicle id="left_258" type="typeWE" route="left" depart="693" />
    <vehicle id="down_259" type="typeNS" route="down" depart="693" color="1,0,0"/>
    <vehicle id="left_260" type="typeWE" route="left" depart="694" />
    <vehicle id="left_261" type="typeWE" route="left" depart="697" />
    <vehicle id="up_262" type="typeNS" route="up" depart="701" color="1,0,0"/>
    <vehicle id="down_263" type="typeNS" route="down" depart="702" color="1,0,0"/>
    <vehicle id="left_264" type="typeWE" route="left" depart="704" />
    <vehicle id="left_265" type="typeWE" route="left" depart="706" />
    <vehicle id="right_266" type="typeWE" route="right" depart="709" />
    <vehicle id="left_267" type="typeWE" route="left" depart="709" />
    <vehicle id="right_268" type="typeWE" route="right" depart="711" />
    <vehicle id="down_269" type="typeNS" route="down" depart="712" color="1,0,0"/>
    <vehicle id="left_270" type="typeWE" route="left" depart="714" />
    <vehicle id="up_271" type="typeNS" route="up" depart="715" color="1,0,0"/>
    <vehicle id="left_272" type="typeWE" route="left" depart="721" />
    <vehicle id="right_273" type="typeWE" route="right" depart="724" />
    <vehicle id="left_274" type="typeWE" route="left" depart="727" />
    <vehicle id="right_275" type="typeWE" route="right" depart="730" />
    <vehicle id="right_276" type="typeWE" route="right" depart="731" />
    <vehicle id="right_277" type="typeWE" route="right" depart="733" />
    <vehicle id="up_278" type="typeNS" route="up" depart="741" color="1,0,0"/>
    <vehicle id="right_279" type="typeWE" route="right" depart="745" />
    <vehicle id="up_280" type="typeNS" route="up" depart="746" color="1,0,0"/>
    <vehicle id="down_281" type="typeNS" route="down" depart="747" color="1,0,0"/>
    <vehicle id="right_282" type="typeWE" route="right" depart="751" />
    <vehicle id="left_283" type="typeWE" route="left" depart="752" />
    <vehicle id="up_284" type="typeNS" route="up" depart="753" color="1,0,0"/>
    <vehicle id="up_285" type="typeNS" route="up" depart="754" color="1,0,0"/>
    <vehicle id="left_286" type="typeWE" route="left" depart="758" />
    <vehicle id="up_287" type="typeNS" route="up" depart="760" color="1,0,0"/>
    <vehicle id="down_288" type="typeNS" route="down" depart="761" color="1,0,0"/>
    <vehicle id="right_289" type="typeWE" route="right" depart="763" />
    <vehicle id="down_290" type="typeNS" route="down" depart="765" color="1,0,0"/>
    <vehicle id="left_291" type="typeWE" route="left" depart="766" />
    <vehicle id="up_292" type="typeNS" route="up" depart="769" color="1,0,0"/>
    <vehicle id="up_293" type="typeNS" route="up" depart="775" color="1,0,0"/>
    <vehicle id="left_294" type="typeWE" route="left" depart="782" />
    <vehicle id="down_295" type="typeNS" route="down" depart="783" color="1,0,0"/>
    <vehicle id="left_296" type="typeWE" route="left" depart="785" />
    <vehicle id="up_297" type="typeNS" route="up" depart="786" color="1,0,0"/>
    <vehicle id="down_298" type="typeNS" route="down" depart="792" color="1,0,0"/>
    <vehicle id="up_299" type="typeNS" route="up" depart="795" color="1,0,0"/>
    <vehicle id="right_300" type="typeWE" route="right" depart="801" />
    <vehicle id="up_301" type="typeNS" route="up" depart="801" color="1,0,0"/>
    <vehicle id="up_302" type="typeNS" route="up" depart="802" color="1,0,0"/>
    <vehicle id="down_303" type="typeNS" route="down" depart="808" color="1,0,0"/>
    <vehicle id="right_304" type="typeWE" route="right" depart="814" />
    <vehicle id="up_305" type="typeNS" route="up" depart="817" color="1,0,0"/>
    <vehicle id="up_306" type="typeNS" route="up" depart="819" color="1,0,0"/>
    <vehicle id="right_307" type="typeWE" route="right" depart="823" />
    <vehicle id="down_308" type="typeNS" route="down" depart="824" color="1,0,0"/>
    <vehicle id="left_309" type="typeWE" route="left" depart="828" />
    <vehicle id="right_310" type="typeWE" route="right" depart="830" />
    <vehicle id="down_311" type="typeNS" route="down" depart="831" color="1,0,0"/>
    <vehicle id="left_312" type="typeWE" route="left" depart="832" />
    <vehicle id="left_313" type="typeWE" route="left" depart="841" />
    <vehicle id="left_314" type="typeWE" route="left" depart="842" />
    <vehicle id="left_315" type="typeWE" route="left" depart="843" />
    <vehicle id="left_316" type="typeWE" route="left" depart="850" />
    <vehicle id="down_317" type="typeNS" route="down" depart="851" color="1,0,0"/>
    <vehicle id="right_318" type="typeWE" route="right" depart="853" />
    <vehicle id="up_319" type="typeNS" route="up" depart="855" color="1,0,0"/>
    <vehicle id="right_320" type="typeWE" route="right" depart="857" />
    <vehicle id="down_321" type="typeNS" route="down" depart="857" color="1,0,0"/>
    <vehicle id="down_322" type="typeNS" route="down" depart="859" color="1,0,0"/>
    <vehicle id="up_323" type="typeNS" route="up" depart="862" color="1,0,0"/>
    <vehicle id="left_324" type="typeWE" route="left" depart="865" />
    <vehicle id="left_325" type="typeWE" route="left" depart="867" />
    <vehicle id="down_326" type="typeNS" route="down" depart="870" color="1,0,0"/>
    <vehicle id="up_327" type="typeNS" route="up" depart="872" color="1,0,0"/>
    <vehicle id="left_328" type="typeWE" route="left" depart="874" />
    <vehicle id="left_329" type="typeWE" route="left" depart="875" />
    <vehicle id="left_330" type="typeWE" route="left" depart="879" />
    <vehicle id="down_331" type="typeNS" route="down" depart="879" color="1,0,0"/>
    <vehicle id="up_332" type="typeNS" route="up" depart="881" color="1,0,0"/>
    <vehicle id="right_333" type="typeWE" route="right" depart="886" />
    <vehicle id="left_334" type="typeWE" route="left" depart="892" />
    <vehicle id="right_335" type="typeWE" route="right" depart="906" />
    <vehicle id="right_336" type="typeWE" route="right" depart="909" />
    <vehicle id="up_337" type="typeNS" route="up" depart="913" color="1,0,0"/>
    <vehicle id="down_338" type="typeNS" route="down" depart="921" color="1,0,0"/>
    <vehicle id="left_339" type="typeWE" route="left" depart="924" />
    <vehicle id="right_340" type="typeWE" route="right" depart="928" />
    <vehicle id="up_341" type="typeNS" route="up" depart="932" color="1,0,0"/>
    <vehicle id="up_342" type="typeNS" route="up" depart="934" color="1,0,0"/>
    <vehicle id="right_343" type="typeWE" route="right" depart="935" />
    <vehicle id="right_344" type="typeWE" route="right" depart="939" />
    <vehicle id="left_345" type="typeWE" route="left" depart="939" />
    <vehicle id="down_346" type="typeNS" route="down" depart="941" color="1,0,0"/>
    <vehicle id="down_347" type="typeNS" route="down" depart="943" color="1,0,0"/>
    <vehicle id="up_348" type="typeNS" route="up" depart="944" color="1,0,0"/>
    <vehicle id="left_349" type="typeWE" route="left" depart="950" />
    <vehicle id="left_350" type="typeWE" route="left" depart="956" />
    <vehicle id="down_351" type="typeNS" route="down" depart="956" color="1,0,0"/>
    <vehicle id="right_352" type="typeWE" route="right" depart="961" />
    <vehicle id="left_353" type="typeWE" route="left" depart="966" />
    <vehicle id="down_354" type="typeNS" route="down" depart="966" color="1,0,0"/>
    <vehicle id="up_355" type="typeNS" route="up" depart="966" color="1,0,0"/>
    <vehicle id="left_356" type="typeWE" route="left" depart="967" />
    <vehicle id="right_357" type="typeWE" route="right" depart="976" />
    <vehicle id="down_358" type="typeNS" route="down" depart="976" color="1,0,0"/>
    <vehicle id="right_359" type="typeWE" route="right" depart="978" />
    <vehicle id="down_360" type="typeNS" route="down" depart="984" color="1,0,0"/>
    <vehicle id="left_361" type="typeWE" route="left" depart="988" />
    <vehicle id="down_362" type="typeNS" route="down" depart="988" color="1,0,0"/>
    <vehicle id="down_363" type="typeNS" route="down" depart="989" color="1,0,0"/>
    <vehicle id="right_364" type="typeWE" route="right" depart="990" />
    <vehicle id="down_365" type="typeNS" route="down" depart="991" color="1,0,0"/>
    <vehicle id="down_366" type="typeNS" route="down" depart="992" color="1,0,0"/>
    <vehicle id="down_367" type="typeNS" route="down" depart="998" color="1,0,0"/>
    <vehicle id="left_368" type="typeWE" route="left" depart="999" />
    <vehicle id="down_369" type="typeNS" route="down" depart="1002" color="1,0,0"/>
    <vehicle id="right_370" type="typeWE" route="right" depart="1005" />
    <vehicle id="left_371" type="typeWE" route="left" depart="1008" />
    <vehicle id="up_372" type="typeNS" route="up" depart="1017" color="1,0,0"/>
    <vehicle id="right_373" type="typeWE" route="right" depart="1018" />
    <vehicle id="right_374" type="typeWE" route="right" depart="1019" />
    <vehicle id="down_375" type="typeNS" route="down" depart="1019" color="1,0,0"/>
    <vehicle id="up_376" type="typeNS" route="up" depart="1019" color="1,0,0"/>
    <vehicle id="down_377" type="typeNS" route="down" depart="1023" color="1,0,0"/>
    <vehicle id="up_378" type="typeNS" route="up" depart="1024" color="1,0,0"/>
    <vehicle id="left_379" type="typeWE" route="left" depart="1025" />
    <vehicle id="down_380" type="typeNS" route="down" depart="1027" color="1,0,0"/>
    <vehicle id="up_381" type="typeNS" route="up" depart="1027" color="1,0,0"/>
    <vehicle id="left_382" type="typeWE" route="left" depart="1031" />
    <vehicle id="down_383" type="typeNS" route="down" depart="1035" color="1,0,0"/>
    <vehicle id="right_384" type="typeWE" route="right" depart="1036" />
    <vehicle id="right_385" type="typeWE" route="right" depart="1038" />
    <vehicle id="up_386" type="typeNS" route="up" depart="1038" color="1,0,0"/>
    <vehicle id="down_387" type="typeNS" route="down" depart="1039" color="1,0,0"/>
    <vehicle id="up_388" type="typeNS" route="up" depart="1045" color="1,0,0"/>
    <vehicle id="right_389" type="typeWE" route="right" depart="1049" />
    <vehicle id="right_390" type="typeWE" route="right" depart="1052" />