<?xml version="1.0" encoding="UTF-8"?>

<!-- generated on 2024-11-25 04:59:16 by Eclipse SUMO netconvert Version v1_21_0+0933-9baddb96f5f
<netconvertConfiguration xmlns:xsi="http://www.w3.org/2001/XMLSchema-instance" xsi:noNamespaceSchemaLocation="http://sumo.dlr.de/xsd/netconvertConfiguration.xsd">

    <input>
        <type-files value="${SUMO_HOME}/data/typemap/osmNetconvert.typ.xml"/>
        <osm-files value="osm_bbox.osm.xml.gz"/>
    </input>

    <output>
        <output-file value="osm.net.xml.gz"/>
        <output.street-names value="true"/>
        <output.original-names value="true"/>
    </output>

    <projection>
        <proj.utm value="true"/>
    </projection>

    <processing>
        <geometry.remove value="true"/>
        <roundabouts.guess value="true"/>
    </processing>

    <tls_building>
        <tls.discard-simple value="true"/>
        <tls.join value="true"/>
        <tls.guess-signals value="true"/>
        <tls.default-type value="actuated"/>
    </tls_building>

    <ramp_guessing>
        <ramps.guess value="true"/>
    </ramp_guessing>

    <edge_removal>
        <keep-edges.by-vclass value="passenger"/>
    </edge_removal>

    <junctions>
        <junctions.join value="true"/>
        <junctions.corner-detail value="5"/>
    </junctions>

</netconvertConfiguration>
-->

<net version="1.20" junctionCornerDetail="5" limitTurnSpeed="5.50" xmlns:xsi="http://www.w3.org/2001/XMLSchema-instance" xsi:noNamespaceSchemaLocation="http://sumo.dlr.de/xsd/net_file.xsd">

    <location netOffset="-611989.24,-5041398.56" convBoundary="0.00,0.00,878.03,837.70" origBoundary="-73.566061,45.517013,-73.554820,45.524648" projParameter="+proj=utm +zone=18 +ellps=WGS84 +datum=WGS84 +units=m +no_defs"/>

    <type id="highway.residential" priority="3" numLanes="1" speed="13.89" disallow="tram rail_urban rail rail_electric rail_fast ship container cable_car subway aircraft wheelchair scooter drone" oneway="0"/>
    <type id="highway.secondary" priority="11" numLanes="1" speed="27.78" disallow="tram rail_urban rail rail_electric rail_fast ship container cable_car subway aircraft wheelchair scooter drone" oneway="0"/>

    <edge id=":1497705444_0" function="internal">
        <lane id=":1497705444_0_0" index="0" disallow="tram rail_urban rail rail_electric rail_fast ship container cable_car subway aircraft wheelchair scooter drone" speed="6.52" length="8.95" shape="434.38,504.32 436.22,502.71 437.11,500.89 437.05,498.86 436.05,496.62"/>
    </edge>
    <edge id=":1497705444_1" function="internal">
        <lane id=":1497705444_1_0" index="0" disallow="tram rail_urban rail rail_electric rail_fast ship container cable_car subway aircraft wheelchair scooter drone" speed="8.33" length="11.05" shape="434.38,504.32 443.67,498.34"/>
    </edge>
    <edge id=":1497705446_0" function="internal">
        <lane id=":1497705446_0_0" index="0" disallow="tram rail_urban rail rail_electric rail_fast ship container cable_car subway aircraft wheelchair scooter drone" speed="6.53" length="8.95" shape="409.59,527.05 408.60,524.80 408.55,522.77 409.43,520.95 411.26,519.34"/>
    </edge>
    <edge id=":1497705446_1" function="internal">
        <lane id=":1497705446_1_0" index="0" disallow="tram rail_urban rail rail_electric rail_fast ship container cable_car subway aircraft wheelchair scooter drone" speed="8.33" length="11.04" shape="402.01,525.36 411.26,519.34"/>
    </edge>
    <edge id=":1497705450_0" function="internal">
        <lane id=":1497705450_0_0" index="0" disallow="tram rail_urban rail rail_electric rail_fast ship container cable_car subway aircraft wheelchair scooter drone" speed="5.86" length="6.89" shape="476.61,331.59 477.61,332.44 478.98,332.63 480.73,332.17 482.84,331.05"/>
    </edge>
    <edge id=":1497705450_1" function="internal">
        <lane id=":1497705450_1_0" index="0" disallow="tram rail_urban rail rail_electric rail_fast ship container cable_car subway aircraft wheelchair scooter drone" speed="8.33" length="8.30" shape="476.61,331.59 481.13,338.55"/>
    </edge>
    <edge id=":1497705451_0" function="internal">
        <lane id=":1497705451_0_0" index="0" disallow="tram rail_urban rail rail_electric rail_fast ship container cable_car subway aircraft wheelchair scooter drone" speed="8.33" length="11.19" shape="457.65,593.71 448.19,599.68"/>
    </edge>
    <edge id=":1497705451_1" function="internal">
        <lane id=":1497705451_1_0" index="0" disallow="tram rail_urban rail rail_electric rail_fast ship container cable_car subway aircraft wheelchair scooter drone" speed="6.50" length="9.03" shape="457.65,593.71 455.39,594.71 453.35,594.75 451.53,593.82 449.94,591.92"/>
    </edge>
    <edge id=":1497705452_0" function="internal">
        <lane id=":1497705452_0_0" index="0" disallow="tram rail_urban rail rail_electric rail_fast ship container cable_car subway aircraft wheelchair scooter drone" speed="6.51" length="9.04" shape="400.84,440.33 399.23,438.45 397.40,437.53 395.36,437.58 393.11,438.61"/>
    </edge>
    <edge id=":1497705452_1" function="internal">
        <lane id=":1497705452_1_0" index="0" disallow="tram rail_urban rail rail_electric rail_fast ship container cable_car subway aircraft wheelchair scooter drone" speed="8.33" length="11.22" shape="402.60,432.63 393.11,438.61"/>
    </edge>
    <edge id=":208908788_0" function="internal">
        <lane id=":208908788_0_0" index="0" disallow="tram rail_urban rail rail_electric rail_fast ship container cable_car subway aircraft wheelchair scooter drone" speed="6.62" length="10.75" width="6.80" shape="222.22,293.16 220.65,290.20 218.78,288.56 216.59,288.25 214.08,289.25"/>
    </edge>
    <edge id=":208908788_1" function="internal">
        <lane id=":208908788_1_0" index="0" disallow="tram rail_urban rail rail_electric rail_fast ship container cable_car subway aircraft wheelchair scooter drone" speed="11.11" length="16.21" shape="222.22,293.16 216.26,278.08"/>
    </edge>
    <edge id=":208908788_2" function="internal">
        <lane id=":208908788_2_0" index="0" disallow="tram rail_urban rail rail_electric rail_fast ship container cable_car subway aircraft wheelchair scooter drone" speed="3.65" length="1.44" shape="222.22,293.16 222.53,291.75"/>
    </edge>
    <edge id=":208908788_9" function="internal">
        <lane id=":208908788_9_0" index="0" disallow="tram rail_urban rail rail_electric rail_fast ship container cable_car subway aircraft wheelchair scooter drone" speed="3.65" length="3.23" shape="222.53,291.75 223.13,291.08 224.02,291.17 225.20,291.99"/>
    </edge>
    <edge id=":208908788_3" function="internal">
        <lane id=":208908788_3_0" index="0" disallow="tram rail_urban rail rail_electric rail_fast ship container cable_car subway aircraft wheelchair scooter drone" speed="8.57" length="12.64" shape="227.42,280.60 225.30,282.65 224.23,285.24 224.20,288.35 225.20,291.99"/>
    </edge>
    <edge id=":208908788_4" function="internal">
        <lane id=":208908788_4_0" index="0" disallow="tram rail_urban rail rail_electric rail_fast ship container cable_car subway aircraft wheelchair scooter drone" speed="8.33" length="15.90" width="6.80" shape="227.42,280.60 214.08,289.25"/>
    </edge>
    <edge id=":208908788_5" function="internal">
        <lane id=":208908788_5_0" index="0" disallow="tram rail_urban rail rail_electric rail_fast ship container cable_car subway aircraft wheelchair scooter drone" speed="7.69" length="13.78" shape="227.42,280.60 223.73,282.47 220.64,282.68 218.15,281.21 216.26,278.08"/>
    </edge>
    <edge id=":208908788_6" function="internal">
        <lane id=":208908788_6_0" index="0" disallow="tram rail_urban rail rail_electric rail_fast ship container cable_car subway aircraft wheelchair scooter drone" speed="11.11" length="16.24" shape="219.23,276.89 225.20,291.99"/>
    </edge>
    <edge id=":208908788_7" function="internal">
        <lane id=":208908788_7_0" index="0" disallow="tram rail_urban rail rail_electric rail_fast ship container cable_car subway aircraft wheelchair scooter drone" speed="8.72" length="3.73" width="6.80" shape="219.23,276.89 220.00,280.40 219.98,280.54"/>
    </edge>
    <edge id=":208908788_8" function="internal">
        <lane id=":208908788_8_0" index="0" disallow="tram rail_urban rail rail_electric rail_fast ship container cable_car subway aircraft wheelchair scooter drone" speed="3.65" length="1.44" shape="219.23,276.89 218.93,278.30"/>
    </edge>
    <edge id=":208908788_10" function="internal">
        <lane id=":208908788_10_0" index="0" disallow="tram rail_urban rail rail_electric rail_fast ship container cable_car subway aircraft wheelchair scooter drone" speed="8.72" length="10.98" width="6.80" shape="219.98,280.54 219.41,283.63 217.43,286.58 214.08,289.25"/>
    </edge>
    <edge id=":208908788_11" function="internal">
        <lane id=":208908788_11_0" index="0" disallow="tram rail_urban rail rail_electric rail_fast ship container cable_car subway aircraft wheelchair scooter drone" speed="3.65" length="3.23" shape="218.93,278.30 218.34,278.97 217.45,278.90 216.26,278.08"/>
    </edge>
    <edge id=":208908792_0" function="internal">
        <lane id=":208908792_0_0" index="0" disallow="tram rail_urban rail rail_electric rail_fast ship container cable_car subway aircraft wheelchair scooter drone" speed="6.15" length="9.05" shape="244.56,349.89 243.29,347.68 241.66,346.55 239.68,346.51 237.35,347.54"/>
    </edge>
    <edge id=":208908792_1" function="internal">
        <lane id=":208908792_1_0" index="0" disallow="tram rail_urban rail rail_electric rail_fast ship container cable_car subway aircraft wheelchair scooter drone" speed="11.11" length="15.64" shape="244.56,349.89 238.73,335.37"/>
    </edge>
    <edge id=":208908792_2" function="internal">
        <lane id=":208908792_2_0" index="0" disallow="tram rail_urban rail rail_electric rail_fast ship container cable_car subway aircraft wheelchair scooter drone" speed="8.94" length="4.32" shape="244.56,349.89 243.56,345.86 243.58,345.69"/>
    </edge>
    <edge id=":208908792_3" function="internal">
        <lane id=":208908792_3_0" index="0" disallow="tram rail_urban rail rail_electric rail_fast ship container cable_car subway aircraft wheelchair scooter drone" speed="3.65" length="1.44" shape="244.56,349.89 244.86,348.48"/>
    </edge>
    <edge id=":208908792_16" function="internal">
        <lane id=":208908792_16_0" index="0" disallow="tram rail_urban rail rail_electric rail_fast ship container cable_car subway aircraft wheelchair scooter drone" speed="8.94" length="11.16" shape="243.58,345.69 243.95,342.29 245.74,339.17 248.92,336.51"/>
    </edge>
    <edge id=":208908792_17" function="internal">
        <lane id=":208908792_17_0" index="0" disallow="tram rail_urban rail rail_electric rail_fast ship container cable_car subway aircraft wheelchair scooter drone" speed="3.65" length="3.23" shape="244.86,348.48 245.45,347.81 246.34,347.89 247.53,348.70"/>
    </edge>
    <edge id=":208908792_4" function="internal">
        <lane id=":208908792_4_0" index="0" disallow="tram rail_urban rail rail_electric rail_fast ship container cable_car subway aircraft wheelchair scooter drone" speed="7.61" length="10.97" shape="250.61,339.23 248.36,341.11 247.10,343.32 246.82,345.85 247.53,348.70"/>
    </edge>
    <edge id=":208908792_5" function="internal">
        <lane id=":208908792_5_0" index="0" disallow="tram rail_urban rail rail_electric rail_fast ship container cable_car subway aircraft wheelchair scooter drone" speed="8.33" length="15.65" shape="250.61,339.23 237.35,347.54"/>
    </edge>
    <edge id=":208908792_6" function="internal">
        <lane id=":208908792_6_0" index="0" disallow="tram rail_urban rail rail_electric rail_fast ship container cable_car subway aircraft wheelchair scooter drone" speed="7.72" length="4.20" shape="250.61,339.23 246.78,340.93"/>
    </edge>
    <edge id=":208908792_7" function="internal">
        <lane id=":208908792_7_0" index="0" disallow="tram rail_urban rail rail_electric rail_fast ship container cable_car subway aircraft wheelchair scooter drone" speed="3.65" length="1.44" shape="250.61,339.23 249.17,339.18"/>
    </edge>
    <edge id=":208908792_18" function="internal">
        <lane id=":208908792_18_0" index="0" disallow="tram rail_urban rail rail_electric rail_fast ship container cable_car subway aircraft wheelchair scooter drone" speed="7.72" length="10.72" shape="246.78,340.93 243.52,340.85 240.84,339.00 238.73,335.37"/>
    </edge>
    <edge id=":208908792_19" function="internal">
        <lane id=":208908792_19_0" index="0" disallow="tram rail_urban rail rail_electric rail_fast ship container cable_car subway aircraft wheelchair scooter drone" speed="3.65" length="3.23" shape="249.17,339.18 248.41,338.72 248.32,337.83 248.92,336.51"/>
    </edge>
    <edge id=":208908792_8" function="internal">
        <lane id=":208908792_8_0" index="0" disallow="tram rail_urban rail rail_electric rail_fast ship container cable_car subway aircraft wheelchair scooter drone" speed="6.16" length="9.06" shape="241.69,334.17 242.97,336.38 244.61,337.50 246.59,337.55 248.92,336.51"/>
    </edge>
    <edge id=":208908792_9" function="internal">
        <lane id=":208908792_9_0" index="0" disallow="tram rail_urban rail rail_electric rail_fast ship container cable_car subway aircraft wheelchair scooter drone" speed="11.11" length="15.66" shape="241.69,334.17 247.53,348.70"/>
    </edge>
    <edge id=":208908792_10" function="internal">
        <lane id=":208908792_10_0" index="0" disallow="tram rail_urban rail rail_electric rail_fast ship container cable_car subway aircraft wheelchair scooter drone" speed="8.92" length="4.35" shape="241.69,334.17 242.71,338.20 242.69,338.40"/>
    </edge>
    <edge id=":208908792_11" function="internal">
        <lane id=":208908792_11_0" index="0" disallow="tram rail_urban rail rail_electric rail_fast ship container cable_car subway aircraft wheelchair scooter drone" speed="3.65" length="1.44" shape="241.69,334.17 241.40,335.58"/>
    </edge>
    <edge id=":208908792_20" function="internal">
        <lane id=":208908792_20_0" index="0" disallow="tram rail_urban rail rail_electric rail_fast ship container cable_car subway aircraft wheelchair scooter drone" speed="8.92" length="11.12" shape="242.69,338.40 242.32,341.76 240.54,344.88 237.35,347.54"/>
    </edge>
    <edge id=":208908792_21" function="internal">
        <lane id=":208908792_21_0" index="0" disallow="tram rail_urban rail rail_electric rail_fast ship container cable_car subway aircraft wheelchair scooter drone" speed="3.65" length="3.23" shape="241.40,335.58 240.81,336.26 239.92,336.19 238.73,335.37"/>
    </edge>
    <edge id=":208908792_12" function="internal">
        <lane id=":208908792_12_0" index="0" disallow="tram rail_urban rail rail_electric rail_fast ship container cable_car subway aircraft wheelchair scooter drone" speed="7.58" length="10.95" shape="235.65,344.82 237.91,342.94 239.17,340.74 239.44,338.22 238.73,335.37"/>
    </edge>
    <edge id=":208908792_13" function="internal">
        <lane id=":208908792_13_0" index="0" disallow="tram rail_urban rail rail_electric rail_fast ship container cable_car subway aircraft wheelchair scooter drone" speed="8.33" length="15.65" shape="235.65,344.82 248.92,336.51"/>
    </edge>
    <edge id=":208908792_14" function="internal">
        <lane id=":208908792_14_0" index="0" disallow="tram rail_urban rail rail_electric rail_fast ship container cable_car subway aircraft wheelchair scooter drone" speed="7.72" length="4.20" shape="235.65,344.82 239.50,343.13"/>
    </edge>
    <edge id=":208908792_15" function="internal">
        <lane id=":208908792_15_0" index="0" disallow="tram rail_urban rail rail_electric rail_fast ship container cable_car subway aircraft wheelchair scooter drone" speed="3.65" length="1.44" shape="235.65,344.82 237.09,344.86"/>
    </edge>
    <edge id=":208908792_22" function="internal">
        <lane id=":208908792_22_0" index="0" disallow="tram rail_urban rail rail_electric rail_fast ship container cable_car subway aircraft wheelchair scooter drone" speed="7.72" length="10.72" shape="239.50,343.13 242.76,343.21 245.44,345.07 247.53,348.70"/>
    </edge>
    <edge id=":208908792_23" function="internal">
        <lane id=":208908792_23_0" index="0" disallow="tram rail_urban rail rail_electric rail_fast ship container cable_car subway aircraft wheelchair scooter drone" speed="3.65" length="3.23" shape="237.09,344.86 237.86,345.33 237.94,346.22 237.35,347.54"/>
    </edge>
    <edge id=":208908796_0" function="internal">
        <lane id=":208908796_0_0" index="0" disallow="tram rail_urban rail rail_electric rail_fast ship container cable_car subway aircraft wheelchair scooter drone" speed="6.31" length="9.59" width="4.35" shape="266.26,404.79 264.88,402.35 263.16,401.07 261.11,400.95 258.73,401.97"/>
    </edge>
    <edge id=":208908796_1" function="internal">
        <lane id=":208908796_1_0" index="0" disallow="tram rail_urban rail rail_electric rail_fast ship container cable_car subway aircraft wheelchair scooter drone" speed="11.11" length="13.64" shape="266.26,404.79 261.22,392.11"/>
    </edge>
    <edge id=":208908796_2" function="internal">
        <lane id=":208908796_2_0" index="0" disallow="tram rail_urban rail rail_electric rail_fast ship container cable_car subway aircraft wheelchair scooter drone" speed="3.65" length="1.44" shape="266.26,404.79 266.55,403.37"/>
    </edge>
    <edge id=":208908796_9" function="internal">
        <lane id=":208908796_9_0" index="0" disallow="tram rail_urban rail rail_electric rail_fast ship container cable_car subway aircraft wheelchair scooter drone" speed="3.65" length="3.23" shape="266.55,403.37 267.14,402.70 268.04,402.77 269.23,403.58"/>
    </edge>
    <edge id=":208908796_3" function="internal">
        <lane id=":208908796_3_0" index="0" disallow="tram rail_urban rail rail_electric rail_fast ship container cable_car subway aircraft wheelchair scooter drone" speed="7.74" length="11.09" shape="271.69,393.80 269.62,395.62 268.52,397.86 268.39,400.51 269.23,403.58"/>
    </edge>
    <edge id=":208908796_4" function="internal">
        <lane id=":208908796_4_0" index="0" disallow="tram rail_urban rail rail_electric rail_fast ship container cable_car subway aircraft wheelchair scooter drone" speed="8.33" length="15.32" width="4.35" shape="271.69,393.80 258.73,401.97"/>
    </edge>
    <edge id=":208908796_5" function="internal">
        <lane id=":208908796_5_0" index="0" disallow="tram rail_urban rail rail_electric rail_fast ship container cable_car subway aircraft wheelchair scooter drone" speed="7.23" length="12.60" shape="271.69,393.80 268.09,395.56 265.14,395.86 262.85,394.71 261.22,392.11"/>
    </edge>
    <edge id=":208908796_6" function="internal">
        <lane id=":208908796_6_0" index="0" disallow="tram rail_urban rail rail_electric rail_fast ship container cable_car subway aircraft wheelchair scooter drone" speed="11.11" length="13.59" shape="264.20,390.95 269.23,403.58"/>
    </edge>
    <edge id=":208908796_7" function="internal">
        <lane id=":208908796_7_0" index="0" disallow="tram rail_urban rail rail_electric rail_fast ship container cable_car subway aircraft wheelchair scooter drone" speed="8.40" length="3.02" width="4.35" shape="264.20,390.95 264.75,393.92"/>
    </edge>
    <edge id=":208908796_8" function="internal">
        <lane id=":208908796_8_0" index="0" disallow="tram rail_urban rail rail_electric rail_fast ship container cable_car subway aircraft wheelchair scooter drone" speed="3.65" length="1.44" shape="264.20,390.95 263.89,392.36"/>
    </edge>
    <edge id=":208908796_10" function="internal">
        <lane id=":208908796_10_0" index="0" disallow="tram rail_urban rail rail_electric rail_fast ship container cable_car subway aircraft wheelchair scooter drone" speed="8.40" length="10.42" width="4.35" shape="264.75,393.92 264.02,396.75 262.02,399.43 258.73,401.97"/>
    </edge>
    <edge id=":208908796_11" function="internal">
        <lane id=":208908796_11_0" index="0" disallow="tram rail_urban rail rail_electric rail_fast ship container cable_car subway aircraft wheelchair scooter drone" speed="3.65" length="3.23" shape="263.89,392.36 263.29,393.02 262.40,392.94 261.22,392.11"/>
    </edge>
    <edge id=":208908799_0" function="internal">
        <lane id=":208908799_0_0" index="0" disallow="tram rail_urban rail rail_electric rail_fast ship container cable_car subway aircraft wheelchair scooter drone" speed="11.11" length="12.37" shape="286.70,455.50 282.14,444.00"/>
    </edge>
    <edge id=":208908799_1" function="internal">
        <lane id=":208908799_1_0" index="0" disallow="tram rail_urban rail rail_electric rail_fast ship container cable_car subway aircraft wheelchair scooter drone" speed="8.24" length="2.73" shape="286.70,455.50 286.26,452.80"/>
    </edge>
    <edge id=":208908799_2" function="internal">
        <lane id=":208908799_2_0" index="0" disallow="tram rail_urban rail rail_electric rail_fast ship container cable_car subway aircraft wheelchair scooter drone" speed="3.65" length="1.44" shape="286.70,455.50 287.01,454.09"/>
    </edge>
    <edge id=":208908799_9" function="internal">
        <lane id=":208908799_9_0" index="0" disallow="tram rail_urban rail rail_electric rail_fast ship container cable_car subway aircraft wheelchair scooter drone" speed="8.24" length="10.12" shape="286.26,452.80 287.05,450.17 289.07,447.61 292.33,445.11"/>
    </edge>
    <edge id=":208908799_10" function="internal">
        <lane id=":208908799_10_0" index="0" disallow="tram rail_urban rail rail_electric rail_fast ship container cable_car subway aircraft wheelchair scooter drone" speed="3.65" length="3.23" shape="287.01,454.09 287.61,453.43 288.50,453.51 289.68,454.34"/>
    </edge>
    <edge id=":208908799_3" function="internal">
        <lane id=":208908799_3_0" index="0" disallow="tram rail_urban rail rail_electric rail_fast ship container cable_car subway aircraft wheelchair scooter drone" speed="6.15" length="9.06" shape="285.11,442.80 286.39,445.00 288.02,446.12 290.00,446.16 292.33,445.11"/>
    </edge>
    <edge id=":208908799_4" function="internal">
        <lane id=":208908799_4_0" index="0" disallow="tram rail_urban rail rail_electric rail_fast ship container cable_car subway aircraft wheelchair scooter drone" speed="11.11" length="12.42" shape="285.11,442.80 289.68,454.34"/>
    </edge>
    <edge id=":208908799_5" function="internal">
        <lane id=":208908799_5_0" index="0" disallow="tram rail_urban rail rail_electric rail_fast ship container cable_car subway aircraft wheelchair scooter drone" speed="3.65" length="1.44" shape="285.11,442.80 284.82,444.21"/>
    </edge>
    <edge id=":208908799_11" function="internal">
        <lane id=":208908799_11_0" index="0" disallow="tram rail_urban rail rail_electric rail_fast ship container cable_car subway aircraft wheelchair scooter drone" speed="3.65" length="3.23" shape="284.82,444.21 284.23,444.88 283.33,444.81 282.14,444.00"/>
    </edge>
    <edge id=":208908799_6" function="internal">
        <lane id=":208908799_6_0" index="0" disallow="tram rail_urban rail rail_electric rail_fast ship container cable_car subway aircraft wheelchair scooter drone" speed="7.35" length="10.40" shape="279.51,453.04 281.57,451.33 282.70,449.26 282.89,446.81 282.14,444.00"/>
    </edge>
    <edge id=":208908799_7" function="internal">
        <lane id=":208908799_7_0" index="0" disallow="tram rail_urban rail rail_electric rail_fast ship container cable_car subway aircraft wheelchair scooter drone" speed="8.33" length="15.07" shape="279.51,453.04 292.33,445.11"/>
    </edge>
    <edge id=":208908799_8" function="internal">
        <lane id=":208908799_8_0" index="0" disallow="tram rail_urban rail rail_electric rail_fast ship container cable_car subway aircraft wheelchair scooter drone" speed="7.01" length="12.06" shape="279.51,453.04 283.08,451.35 285.97,451.01 288.17,452.00 289.68,454.34"/>
    </edge>
    <edge id=":208908803_0" function="internal">
        <lane id=":208908803_0_0" index="0" disallow="tram rail_urban rail rail_electric rail_fast ship container cable_car subway aircraft wheelchair scooter drone" speed="6.09" length="9.14" shape="304.82,501.61 303.66,499.45 302.06,498.40 300.03,498.45 297.55,499.60"/>
    </edge>
    <edge id=":208908803_1" function="internal">
        <lane id=":208908803_1_0" index="0" disallow="tram rail_urban rail rail_electric rail_fast ship container cable_car subway aircraft wheelchair scooter drone" speed="11.11" length="12.80" shape="304.82,501.61 299.99,489.76"/>
    </edge>
    <edge id=":208908803_2" function="internal">
        <lane id=":208908803_2_0" index="0" disallow="tram rail_urban rail rail_electric rail_fast ship container cable_car subway aircraft wheelchair scooter drone" speed="7.64" length="10.54" shape="310.10,490.90 308.23,492.59 307.22,494.72 307.06,497.29 307.75,500.30"/>
    </edge>
    <edge id=":208908803_3" function="internal">
        <lane id=":208908803_3_0" index="0" disallow="tram rail_urban rail rail_electric rail_fast ship container cable_car subway aircraft wheelchair scooter drone" speed="8.33" length="15.27" shape="310.10,490.90 297.55,499.60"/>
    </edge>
    <edge id=":208908803_4" function="internal">
        <lane id=":208908803_4_0" index="0" disallow="tram rail_urban rail rail_electric rail_fast ship container cable_car subway aircraft wheelchair scooter drone" speed="6.96" length="12.06" shape="310.10,490.90 306.56,492.69 303.70,493.09 301.51,492.11 299.99,489.76"/>
    </edge>
    <edge id=":208908803_5" function="internal">
        <lane id=":208908803_5_0" index="0" disallow="tram rail_urban rail rail_electric rail_fast ship container cable_car subway aircraft wheelchair scooter drone" speed="11.11" length="12.60" shape="302.99,488.64 307.75,500.30"/>
    </edge>
    <edge id=":208908803_6" function="internal">
        <lane id=":208908803_6_0" index="0" disallow="tram rail_urban rail rail_electric rail_fast ship container cable_car subway aircraft wheelchair scooter drone" speed="8.38" length="3.00" shape="302.99,488.64 303.53,491.59"/>
    </edge>
    <edge id=":208908803_7" function="internal">
        <lane id=":208908803_7_0" index="0" disallow="tram rail_urban rail rail_electric rail_fast ship container cable_car subway aircraft wheelchair scooter drone" speed="8.38" length="10.36" shape="303.53,491.59 302.80,494.40 300.81,497.07 297.55,499.60"/>
    </edge>
    <edge id=":208908805_0" function="internal">
        <lane id=":208908805_0_0" index="0" disallow="tram rail_urban rail rail_electric rail_fast ship container cable_car subway aircraft wheelchair scooter drone" speed="6.15" length="9.06" shape="332.45,562.75 333.72,564.96 335.35,566.09 337.32,566.14 339.66,565.11"/>
    </edge>
    <edge id=":208908805_1" function="internal">
        <lane id=":208908805_1_0" index="0" disallow="tram rail_urban rail rail_electric rail_fast ship container cable_car subway aircraft wheelchair scooter drone" speed="3.65" length="4.67" shape="332.45,562.75 332.15,564.16 331.55,564.83 330.66,564.75 329.48,563.93"/>
    </edge>
    <edge id=":209424947_0" function="internal">
        <lane id=":209424947_0_0" index="0" disallow="tram rail_urban rail rail_electric rail_fast ship container cable_car subway aircraft wheelchair scooter drone" speed="7.33" length="10.52" shape="388.14,179.28 386.31,180.98 385.57,183.09 385.91,185.60 387.33,188.53"/>
    </edge>
    <edge id=":209424947_1" function="internal">
        <lane id=":209424947_1_0" index="0" disallow="tram rail_urban rail rail_electric rail_fast ship container cable_car subway aircraft wheelchair scooter drone" speed="8.33" length="11.22" width="6.80" shape="388.14,179.28 378.64,185.26"/>
    </edge>
    <edge id=":209424947_2" function="internal">
        <lane id=":209424947_2_0" index="0" disallow="tram rail_urban rail rail_electric rail_fast ship container cable_car subway aircraft wheelchair scooter drone" speed="8.33" length="14.82" shape="379.37,176.03 387.33,188.53"/>
    </edge>
    <edge id=":209424947_3" function="internal">
        <lane id=":209424947_3_0" index="0" disallow="tram rail_urban rail rail_electric rail_fast ship container cable_car subway aircraft wheelchair scooter drone" speed="6.94" length="10.53" width="6.80" shape="379.37,176.03 380.84,178.94 381.20,181.45 380.47,183.56 378.64,185.26"/>
    </edge>
    <edge id=":209424951_0" function="internal">
        <lane id=":209424951_0_0" index="0" disallow="tram rail_urban rail rail_electric rail_fast ship container cable_car subway aircraft wheelchair scooter drone" speed="6.56" length="9.12" shape="421.13,232.28 419.21,233.90 418.26,235.73 418.27,237.79 419.26,240.07"/>
    </edge>
    <edge id=":209424951_1" function="internal">
        <lane id=":209424951_1_0" index="0" disallow="tram rail_urban rail rail_electric rail_fast ship container cable_car subway aircraft wheelchair scooter drone" speed="8.33" length="11.29" shape="421.13,232.28 411.57,238.27"/>
    </edge>
    <edge id=":209424951_2" function="internal">
        <lane id=":209424951_2_0" index="0" disallow="tram rail_urban rail rail_electric rail_fast ship container cable_car subway aircraft wheelchair scooter drone" speed="6.47" length="9.03" shape="411.76,227.73 413.33,229.65 415.13,230.60 417.16,230.57 419.43,229.57"/>
    </edge>
    <edge id=":209424951_3" function="internal">
        <lane id=":209424951_3_0" index="0" disallow="tram rail_urban rail rail_electric rail_fast ship container cable_car subway aircraft wheelchair scooter drone" speed="8.33" length="14.44" shape="411.76,227.73 419.26,240.07"/>
    </edge>
    <edge id=":209424951_4" function="internal">