<?xml version="1.0" encoding="UTF-8"?>

<!-- generated on 2024-11-26 11:10:39.786790 by osmWebWizard.py v1_15_0+0002-e6790248698
<configuration>
    <allow-fringe.min-length value="1000.0"/>
    <end value="3600"/>
    <fringe-factor value="5"/>
    <fringe-start-attributes value="departSpeed=&quot;max&quot;"/>
    <insertion-density value="12.0"/>
    <lanes value="True"/>
    <min-distance.fringe value="10.0"/>
    <min-distance value="300.0"/>
    <net-file value="C:\Users\bd200\Sumo\2024-11-26-11-10-35\osm.net.xml.gz"/>
    <remove-loops value="True"/>
    <route-file value="C:\Users\bd200\Sumo\2024-11-26-11-10-35\osm.passenger.rou.xml"/>
    <trip-attributes value="departLane=&quot;best&quot;"/>
    <output-trip-file value="C:\Users\bd200\Sumo\2024-11-26-11-10-35\osm.passenger.trips.xml"/>
    <prefix value="veh"/>
    <validate value="True"/>
    <vehicle-class value="passenger"/>
</configuration>
-->

<!-- generated on 2024-11-26 11:10:39 by Eclipse SUMO duarouter Version 1.15.0
<configuration xmlns:xsi="http://www.w3.org/2001/XMLSchema-instance" xsi:noNamespaceSchemaLocation="http://sumo.dlr.de/xsd/duarouterConfiguration.xsd">

    <input>
        <net-file value="C:\Users\bd200\Sumo\2024-11-26-11-10-35\osm.net.xml.gz"/>
        <route-files value="C:\Users\bd200\Sumo\2024-11-26-11-10-35\osm.passenger.trips.xml"/>
    </input>

    <output>
        <output-file value="C:\Users\bd200\Sumo\2024-11-26-11-10-35\osm.passenger.trips.xml.tmp"/>
        <alternatives-output value="NUL"/>
        <write-trips value="true"/>
    </output>

    <processing>
        <remove-loops value="true"/>
    </processing>

    <time>
        <begin value="0"/>
        <end value="3600"/>
    </time>

    <report>
        <no-warnings value="true"/>
        <ignore-errors value="true"/>
        <no-step-log value="true"/>
    </report>

</configuration>
-->

<routes xmlns:xsi="http://www.w3.org/2001/XMLSchema-instance" xsi:noNamespaceSchemaLocation="http://sumo.dlr.de/xsd/routes_file.xsd">
    <vType id="veh_passenger" vClass="passenger"/>
    <trip id="veh0" type="veh_passenger" depart="0.00" departLane="best" departSpeed="max" from="22894987#0" to="-22894968#4"/>
    <trip id="veh1" type="veh_passenger" depart="11.73" departLane="best" departSpeed="max" from="22894995#0" to="22894987#2"/>
    <trip id="veh2" type="veh_passenger" depart="23.46" departLane="best" from="371652319#3" to="-311420898#0"/>
    <trip id="veh3" type="veh_passenger" depart="35.19" departLane="best" departSpeed="max" from="22894976#0" to="-22894968#5"/>
    <trip id="veh4" type="veh_passenger" depart="46.92" departLane="best" departSpeed="max" from="-453265906" to="22894979#2"/>
    <trip id="veh5" type="veh_passenger" depart="58.65" departLane="best" departSpeed="max" from="22894987#0" to="22894980#2"/>
    <trip id="veh6" type="veh_passenger" depart="70.38" departLane="best" from="-311420898#17" to="22894987#3"/>
    <trip id="veh7" type="veh_passenger" depart="82.11" departLane="best" departSpeed="max" from="22894970#0" to="311420898#18"/>
    <trip id="veh8" type="veh_passenger" depart="93.84" departLane="best" departSpeed="max" from="453265907#0" to="22894968#7"/>
    <trip id="veh9" type="veh_passenger" depart="105.57" departLane="best" from="-311420898#10" to="-311420898#0"/>
    <trip id="veh10" type="veh_passenger" depart="117.30" departLane="best" from="311420898#9" to="22894985#2"/>
    <trip id="veh11" type="veh_passenger" depart="129.03" departLane="best" from="-311420898#17" to="22894994#2"/>
    <trip id="veh12" type="veh_passenger" depart="140.76" departLane="best" from="22894980#2" to="978845777#2"/>
    <trip id="veh13" type="veh_passenger" depart="152.49" departLane="best" from="22894970#8" to="22894980#3"/>
    <trip id="veh14" type="veh_passenger" depart="164.22" departLane="best" from="311420898#4" to="22894985#2"/>
    <trip id="veh16" type="veh_passenger" depart="187.68" departLane="best" from="22894994#1" to="-22894986#3"/>
    <trip id="veh17" type="veh_passenger" depart="199.40" departLane="best" from="453265907#2" to="22894967#5"/>
    <trip id="veh18" type="veh_passenger" depart="211.13" departLane="best" from="-22894986#6" to="-453265907#1"/>
    <trip id="veh19" type="veh_passenger" depart="222.86" departLane="best" from="-311420898#12" to="22894967#5"/>
    <trip id="veh20" type="veh_passenger" depart="234.59" departLane="best" departSpeed="max" from="22894987#0" to="22894970#7"/>
    <trip id="veh21" type="veh_passenger" depart="246.32" departLane="best" from="22894970#6" to="-453265905"/>
    <trip id="veh22" type="veh_passenger" depart="258.05" departLane="best" from="22894967#3" to="453265906"/>
    <trip id="veh23" type="veh_passenger" depart="269.78" departLane="best" from="311420898#2" to="22894994#2"/>
    <trip id="veh24" type="veh_passenger" depart="281.51" departLane="best" departSpeed="max" from="-311420898#23" to="22894970#9"/>
    <trip id="veh25" type="veh_passenger" depart="293.24" departLane="best" from="978845777#0" to="22894986#7"/>
    <trip id="veh26" type="veh_passenger" depart="304.97" departLane="best" departSpeed="max" from="22894984#0" to="22894987#3"/>
    <trip id="veh27" type="veh_passenger" depart="316.70" departLane="best" from="-311420898#8" to="22894995#6"/>
    <trip id="veh28" type="veh_passenger" depart="328.43" departLane="best" departSpeed="max" from="22894967#0" to="-22894968#5"/>
    <trip id="veh29" type="veh_passenger" depart="340.16" departLane="best" from="22894968#7" to="22894967#4"/>
    <trip id="veh30" type="veh_passenger" depart="351.89" departLane="best" departSpeed="max" from="371652319#0" to="22894968#3"/>
    <trip id="veh31" type="veh_passenger" depart="363.62" departLane="best" from="371652319#9" to="22894975#1"/>
    <trip id="veh32" type="veh_passenger" depart="375.35" departLane="best" from="22894967#3" to="-453265907#3"/>
    <trip id="veh33" type="veh_passenger" depart="387.08" departLane="best" departSpeed="max" from="22894984#0" to="22894967#4"/>
    <trip id="veh35" type="veh_passenger" depart="410.54" departLane="best" from="22894971#3" to="-453265907#1"/>
    <trip id="veh36" type="veh_passenger" depart="422.27" departLane="best" from="978845777#1" to="22894979#3"/>
    <trip id="veh37" type="veh_passenger" depart="434.00" departLane="best" from="311420898#1" to="-22894986#3"/>
    <trip id="veh38" type="veh_passenger" depart="445.73" departLane="best" from="-311420898#15" to="22894985#2"/>
    <trip id="veh39" type="veh_passenger" depart="457.46" departLane="best" from="311420898#13" to="22894971#4"/>
    <trip id="veh40" type="veh_passenger" depart="469.19" departLane="best" departSpeed="max" from="-22894986#10" to="22894970#9"/>
    <trip id="veh41" type="veh_passenger" depart="480.92" departLane="best" from="978845777#1" to="22894979#3"/>
    <trip id="veh42" type="veh_passenger" depart="492.65" departLane="best" departSpeed="max" from="453265907#0" to="-311420898#5"/>
    <trip id="veh43" type="veh_passenger" depart="504.38" departLane="best" from="22894968#2" to="22894994#2"/>
    <trip id="veh44" type="veh_passenger" depart="516.11" departLane="best" departSpeed="max" from="22894994#0" to="22894980#1"/>
    <trip id="veh45" type="veh_passenger" depart="527.84" departLane="best" from="-311420898#15" to="22894975#0"/>
    <trip id="veh46" type="veh_passenger" depart="539.57" departLane="best" departSpeed="max" from="371652319#0" to="371652319#10"/>
    <trip id="veh47" type="veh_passenger" depart="551.30" departLane="best" departSpeed="max" from="22894980#0" to="-311420898#6"/>
    <trip id="veh48" type="veh_passenger" depart="563.03" departLane="best" from="371652319#8" to="-311420898#6"/>
    <trip id="veh49" type="veh_passenger" depart="574.76" departLane="best" departSpeed="max" from="22894986#0" to="-311420898#18"/>
    <trip id="veh50" type="veh_passenger" depart="586.48" departLane="best" departSpeed="max" from="311420898#0" to="22894980#1"/>
    <trip id="veh51" type="veh_passenger" depart="598.21" departLane="best" from="311420898#1" to="22894979#3"/>
    <trip id="veh52" type="veh_passenger" depart="609.94" departLane="best" from="22894968#0" to="22894968#5"/>
    <trip id="veh53" type="veh_passenger" depart="621.67" departLane="best" departSpeed="max" from="371652319#0" to="311420898#2"/>
    <trip id="veh54" type="veh_passenger" depart="633.40" departLane="best" from="22894968#5" to="-22894986#3"/>
    <trip id="veh55" type="veh_passenger" depart="645.13" departLane="best" departSpeed="max" from="371652319#0" to="453265906"/>
    <trip id="veh56" type="veh_passenger" depart="656.86" departLane="best" from="-22894986#8" to="22894976#2"/>
    <trip id="veh57" type="veh_passenger" depart="668.59" departLane="best" departSpeed="max" from="-22894986#10" to="22894995#6"/>
    <trip id="veh58" type="veh_passenger" depart="680.32" departLane="best" departSpeed="max" from="311420898#0" to="311420898#11"/>
    <trip id="veh59" type="veh_passenger" depart="692.05" departLane="best" departSpeed="max" from="22894976#0" to="-453265905"/>
    <trip id="veh60" type="veh_passenger" depart="703.78" departLane="best" departSpeed="max" from="22894984#0" to="22894994#2"/>
    <trip id="veh61" type="veh_passenger" depart="715.51" departLane="best" from="978845777#1" to="22894986#9"/>
    <trip id="veh62" type="veh_passenger" depart="727.24" departLane="best" departSpeed="max" from="22894976#0" to="22894979#3"/>
    <trip id="veh63" type="veh_passenger" depart="738.97" departLane="best" from="311420898#17" to="-453265907#1"/>
    <trip id="veh64" type="veh_passenger" depart="750.70" departLane="best" departSpeed="max" from="22894970#0" to="22894984#3"/>
    <trip id="veh65" type="veh_passenger" depart="762.43" departLane="best" departSpeed="max" from="22894967#0" to="-453265907#1"/>
    <trip id="veh66" type="veh_passenger" depart="774.16" departLane="best" departSpeed="max" from="-22894986#10" to="22894985#2"/>
    <trip id="veh67" type="veh_passenger" depart="785.89" departLane="best" departSpeed="max" from="22894967#0" to="371652319#7"/>
    <trip id="veh68" type="veh_passenger" depart="797.62" departLane="best" departSpeed="max" from="371652319#0" to="-22894986#3"/>
    <trip id="veh69" type="veh_passenger" depart="809.35" departLane="best" departSpeed="max" from="-453265906" to="-311420898#14"/>
    <trip id="veh70" type="veh_passenger" depart="821.08" departLane="best" departSpeed="max" from="22894979#0" to="-311420898#1"/>
    <trip id="veh71" type="veh_passenger" depart="832.81" departLane="best" from="-311420898#17" to="-453265905"/>
    <trip id="veh72" type="veh_passenger" depart="844.54" departLane="best" from="-311420898#10" to="22894975#0"/>
    <trip id="veh73" type="veh_passenger" depart="856.27" departLane="best" departSpeed="max" from="22894976#0" to="22894976#1"/>
    <trip id="veh74" type="veh_passenger" depart="868.00" departLane="best" departSpeed="max" from="22894995#0" to="22894987#1"/>
    <trip id="veh75" type="veh_passenger" depart="879.73" departLane="best" from="453265907#2" to="-311420898#0"/>
    <trip id="veh76" type="veh_passenger" depart="891.46" departLane="best" from="22894971#4" to="22894968#7"/>
    <trip id="veh77" type="veh_passenger" depart="903.19" departLane="best" departSpeed="max" from="371652319#0" to="-453265907#3"/>
    <trip id="veh78" type="veh_passenger" depart="914.92" departLane="best" from="452636492" to="22894975#1"/>
    <trip id="veh79" type="veh_passenger" depart="926.65" departLane="best" departSpeed="max" from="22894976#0" to="22894967#5"/>
    <trip id="veh80" type="veh_passenger" depart="938.38" departLane="best" departSpeed="max" from="22894967#0" to="452636492"/>
    <trip id="veh81" type="veh_passenger" depart="950.11" departLane="best" departSpeed="max" from="22894976#0" to="311420898#4"/>
    <trip id="veh82" type="veh_passenger" depart="961.84" departLane="best" departSpeed="max" from="22894984#0" to="-22894986#3"/>
    <trip id="veh83" type="veh_passenger" depart="973.56" departLane="best" departSpeed="max" from="453265907#0" to="-452636492"/>
    <trip id="veh84" type="veh_passenger" depart="985.29" departLane="best" from="22894979#1" to="-453265905"/>
    <trip id="veh85" type="veh_passenger" depart="997.02" departLane="best" from="22894971#4" to="-22894986#3"/>
    <trip id="veh86" type="veh_passenger" depart="1008.75" departLane="best" from="22894970#8" to="978845777#2"/>
    <trip id="veh87" type="veh_passenger" depart="1020.48" departLane="best" departSpeed="max" from="22894979#0" to="22894971#4"/>
    <trip id="veh88" type="veh_passenger" depart="1032.21" departLane="best" departSpeed="max" from="22894984#0" to="22894994#2"/>
    <trip id="veh89" type="veh_passenger" depart="1043.94" departLane="best" departSpeed="max" from="-311420898#23" to="22894968#0"/>
    <trip id="veh91" type="veh_passenger" depart="1067.40" departLane="best" departSpeed="max" from="22894984#0" to="22894995#3"/>
    <trip id="veh92" type="veh_passenger" depart="1079.13" departLane="best" departSpeed="max" from="-22894986#10" to="22894984#2"/>
    <trip id="veh93" type="veh_passenger" depart="1090.86" departLane="best" departSpeed="max" from="22894980#0" to="311420898#21"/>
    <trip id="veh94" type="veh_passenger" depart="1102.59" departLane="best" departSpeed="max" from="22894986#0" to="-452636492"/>
    <trip id="veh95" type="veh_passenger" depart="1114.32" departLane="best" departSpeed="max" from="22894967#0" to="311420898#9"/>
    <trip id="veh96" type="veh_passenger" depart="1126.05" departLane="best" from="371652319#11" to="-453265907#3"/>
    <trip id="veh97" type="veh_passenger" depart="1137.78" departLane="best" departSpeed="max" from="22894986#0" to="22894985#2"/>
    <trip id="veh98" type="veh_passenger" depart="1149.51" departLane="best" departSpeed="max" from="22894976#0" to="22894984#2"/>
    <trip id="veh99" type="veh_passenger" depart="1161.24" departLane="best" departSpeed="max" from="22894980#0" to="453265906"/>
    <trip id="veh100" type="veh_passenger" depart="1172.97" departLane="best" departSpeed="max" from="-453265906" to="22894994#2"/>
    <trip id="veh101" type="veh_passenger" depart="1184.70" departLane="best" departSpeed="max" from="22894967#0" to="22894970#9"/>
    <trip id="veh102" type="veh_passenger" depart="1196.43" departLane="best" from="22894987#2" to="-22894968#0"/>
    <trip id="veh103" type="veh_passenger" depart="1208.16" departLane="best" from="22894968#7" to="-311420898#3"/>
    <trip id="veh104" type="veh_passenger" depart="1219.89" departLane="best" departSpeed="max" from="-22894986#10" to="22894975#1"/>
    <trip id="veh105" type="veh_passenger" depart="1231.62" departLane="best" from="978845777#1" to="978845777#2"/>
    <trip id="veh106" type="veh_passenger" depart="1243.35" departLane="best" from="22894967#3" to="453265906"/>
    <trip id="veh107" type="veh_passenger" depart="1255.08" departLane="best" from="22894970#6" to="311420898#19"/>
    <trip id="veh108" type="veh_passenger" depart="1266.81" departLane="best" from="311420898#4" to="22894987#3"/>
    <trip id="veh109" type="veh_passenger" depart="1278.54" departLane="best" departSpeed="max" from="22894986#0" to="978845777#2"/>
    <trip id="veh110" type="veh_passenger" depart="1290.27" departLane="best" departSpeed="max" from="22894987#0" to="-22894968#1"/>
    <trip id="veh111" type="veh_passenger" depart="1302.00" departLane="best" from="22894987#1" to="453265906"/>
    <trip id="veh112" type="veh_passenger" depart="1313.73" departLane="best" from="-311420898#20" to="-311420898#1"/>
    <trip id="veh113" type="veh_passenger" depart="1325.46" departLane="best" from="311420898#13" to="22894980#3"/>
    <trip id="veh114" type="veh_passenger" depart="1337.19" departLane="best" from="22894967#4" to="22894985#2"/>
    <trip id="veh115" type="veh_passenger" depart="1348.92" departLane="best" departSpeed="max" from="22894995#0" to="-453265905"/>
    <trip id="veh116" type="veh_passenger" depart="1360.64" departLane="best" from="-311420898#18" to="371652319#7"/>
    <trip id="veh117" type="veh_passenger" depart="1372.37" departLane="best" from="-311420898#10" to="-311420898#0"/>
    <trip id="veh118" type="veh_passenger" depart="1384.10" departLane="best" departSpeed="max" from="22894976#0" to="22894967#5"/>
    <trip id="veh119" type="veh_passenger" depart="1395.83" departLane="best" from="22894968#0" to="22894995#6"/>
    <trip id="veh120" type="veh_passenger" depart="1407.56" departLane="best" departSpeed="max" from="22894987#0" to="22894967#3"/>
    <trip id="veh121" type="veh_passenger" depart="1419.29" departLane="best" from="22894995#3" to="22894980#3"/>
    <trip id="veh122" type="veh_passenger" depart="1431.02" departLane="best" departSpeed="max" from="22894976#0" to="-22894968#1"/>
    <trip id="veh123" type="veh_passenger" depart="1442.75" departLane="best" from="371652319#7" to="22894980#2"/>
    <trip id="veh124" type="veh_passenger" depart="1454.48" departLane="best" from="311420898#6" to="22894984#2"/>
    <trip id="veh125" type="veh_passenger" depart="1466.21" departLane="best" departSpeed="max" from="-311420898#23" to="-311420898#12"/>
    <trip id="veh127" type="veh_passenger" depart="1489.67" departLane="best" from="-311420898#15" to="-311420898#5"/>
    <trip id="veh128" type="veh_passenger" depart="1501.40" departLane="best" from="371652319#4" to="-453265905"/>
    <trip id="veh129" type="veh_passenger" depart="1513.13" departLane="best" departSpeed="max" from="22894967#0" to="-311420898#0"/>
    <trip id="veh130" type="veh_passenger" depart="1524.86" departLane="best" from="311420898#1" to="371652319#10"/>
    <trip id="veh131" type="veh_passenger" depart="1536.59" departLane="best" from="22894971#5" to="22894985#2"/>
    <trip id="veh132" type="veh_passenger" depart="1548.32" departLane="best" departSpeed="max" from="-311420898#23" to="453265906"/>
    <trip id="veh133" type="veh_passenger" depart="1560.05" departLane="best" departSpeed="max" from="371652319#0" to="978845777#2"/>
    <trip id="veh134" type="veh_passenger" depart="1571.78" departLane="best" from="22894968#4" to="22894994#2"/>
    <trip id="veh135" type="veh_passenger" depart="1583.51" departLane="best" departSpeed="max" from="22894970#0" to="453265906"/>
    <trip id="veh136" type="veh_passenger" depart="1595.24" departLane="best" from="-311420898#16" to="-311420898#5"/>
    <trip id="veh137" type="veh_passenger" depart="1606.97" departLane="best" from="-311420898#17" to="22894967#4"/>
    <trip id="veh138" type="veh_passenger" depart="1618.70" departLane="best" from="-311420898#12" to="-311420898#0"/>
    <trip id="veh139" type="veh_passenger" depart="1630.43" departLane="best" departSpeed="max" from="371652319#0" to="311420898#21"/>
    <trip id="veh140" type="veh_passenger" depart="1642.16" departLane="best" departSpeed="max" from="-453265906" to="311420898#18"/>
    <trip id="veh141" type="veh_passenger" depart="1653.89" departLane="best" from="311420898#15" to="-453265907#1"/>
    <trip id="veh142" type="veh_passenger" depart="1665.62" departLane="best" departSpeed="max" from="22894970#0" to="-311420898#5"/>
    <trip id="veh143" type="veh_passenger" depart="1677.35" departLane="best" departSpeed="max" from="453265907#0" to="22894967#5"/>
    <trip id="veh144" type="veh_passenger" depart="1689.08" departLane="best" departSpeed="max" from="453265907#0" to="22894979#3"/>
    <trip id="veh145" type="veh_passenger" depart="1700.81" departLane="best" departSpeed="max" from="453265905" to="-311420898#1"/>
    <trip id="veh146" type="veh_passenger" depart="1712.54" departLane="best" departSpeed="max" from="453265907#0" to="-311420898#6"/>
    <trip id="veh147" type="veh_passenger" depart="1724.27" departLane="best" departSpeed="max" from="453265907#0" to="22894967#4"/>
    <trip id="veh148" type="veh_passenger" depart="1736.00" departLane="best" from="-311420898#14" to="22894975#0"/>
    <trip id="veh149" type="veh_passenger" depart="1747.72" departLane="best" departSpeed="max" from="22894995#0" to="22894968#3"/>
    <trip id="veh150" type="veh_passenger" depart="1759.45" departLane="best" departSpeed="max" from="22894986#0" to="22894979#3"/>
    <trip id="veh151" type="veh_passenger" depart="1771.18" departLane="best" from="-22894968#0" to="-452636492"/>
    <trip id="veh152" type="veh_passenger" depart="1782.91" departLane="best" departSpeed="max" from="22894984#0" to="22894994#2"/>
    <trip id="veh153" type="veh_passenger" depart="1794.64" departLane="best" from="22894995#3" to="22894987#1"/>
    <trip id="veh154" type="veh_passenger" depart="1806.37" departLane="best" from="22894970#5" to="-22894986#3"/>
    <trip id="veh155" type="veh_passenger" depart="1818.10" departLane="best" from="22894987#1" to="22894968#6"/>
    <trip id="veh156" type="veh_passenger" depart="1829.83" departLane="best" from="-22894968#6" to="311420898#21"/>
    <trip id="veh157" type="veh_passenger" depart="1841.56" departLane="best" departSpeed="max" from="22894995#0" to="22894968#0"/>
    <trip id="veh158" type="veh_passenger" depart="1853.29" departLane="best" from="-22894968#6" to="22894971#2"/>
    <trip id="veh159" type="veh_passenger" depart="1865.02" departLane="best" from="22894971#4" to="22894967#5"/>
    <trip id="veh160" type="veh_passenger" depart="1876.75" departLane="best" departSpeed="max" from="453265905" to="22894987#2"/>
    <trip id="veh161" type="veh_passenger" depart="1888.48" departLane="best" from="371652319#4" to="22894985#2"/>
    <trip id="veh162" type="veh_passenger" depart="1900.21" departLane="best" from="-22894968#0" to="22894967#5"/>
    <trip id="veh165" type="veh_passenger" depart="1935.40" departLane="best" departSpeed="max" from="22894976#0" to="-453265905"/>
    <trip id="veh166" type="veh_passenger" depart="1947.13" departLane="best" departSpeed="max" from="22894979#0" to="371652319#4"/>
    <trip id="veh167" type="veh_passenger" depart="1958.86" departLane="best" from="-311420898#15" to="-311420898#5"/>
    <trip id="veh168" type="veh_passenger" depart="1970.59" departLane="best" from="-22894986#8" to="22894979#3"/>
    <trip id="veh169" type="veh_passenger" depart="1982.32" departLane="best" from="-311420898#20" to="-311420898#3"/>
    <trip id="veh170" type="veh_passenger" depart="1994.05" departLane="best" from="22894987#2" to="-453265907#1"/>
    <trip id="veh171" type="veh_passenger" depart="2005.78" departLane="best" departSpeed="max" from="22894967#0" to="22894976#2"/>
    <trip id="veh172" type="veh_passenger" depart="2017.51" departLane="best" from="311420898#9" to="-22894986#6"/>
    <trip id="veh173" type="veh_passenger" depart="2029.24" departLane="best" from="22894975#0" to="22894985#2"/>
    <trip id="veh175" type="veh_passenger" depart="2052.70" departLane="best" departSpeed="max" from="22894987#0" to="-22894968#0"/>
    <trip id="veh176" type="veh_passenger" depart="2064.43" departLane="best" departSpeed="max" from="311420898#0" to="22894995#6"/>
    <trip id="veh177" type="veh_passenger" depart="2076.16" departLane="best" from="-311420898#14" to="22894971#5"/>
    <trip id="veh178" type="veh_passenger" depart="2087.89" departLane="best" from="311420898#4" to="-453265907#3"/>
    <trip id="veh179" type="veh_passenger" depart="2099.62" departLane="best" departSpeed="max" from="22894980#0" to="-22894986#3"/>
    <trip id="veh180" type="veh_passenger" depart="2111.35" departLane="best" departSpeed="max" from="22894967#0" to="311420898#21"/>
    <trip id="veh181" type="veh_passenger" depart="2123.08" departLane="best" departSpeed="max" from="22894979#0" to="311420898#15"/>
    <trip id="veh182" type="veh_passenger" depart="2134.80" departLane="best" from="22894987#1" to="978845777#2"/>
    <trip id="veh183" type="veh_passenger" depart="2146.53" departLane="best" departSpeed="max" from="22894986#0" to="453265906"/>
    <trip id="veh184" type="veh_passenger" depart="2158.26" departLane="best" from="371652319#11" to="22894985#2"/>
    <trip id="veh185" type="veh_passenger" depart="2169.99" departLane="best" departSpeed="max" from="22894995#0" to="22894979#2"/>
    <trip id="veh186" type="veh_passenger" depart="2181.72" departLane="best" from="311420898#4" to="22894980#3"/>
    <trip id="veh187" type="veh_passenger" depart="2193.45" departLane="best" departSpeed="max" from="22894979#0" to="22894967#3"/>
    <trip id="veh188" type="veh_passenger" depart="2205.18" departLane="best" departSpeed="max" from="22894967#0" to="22894986#7"/>
    <trip id="veh189" type="veh_passenger" depart="2216.91" departLane="best" departSpeed="max" from="311420898#0" to="22894979#3"/>
    <trip id="veh190" type="veh_passenger" depart="2228.64" departLane="best" from="22894986#4" to="22894967#5"/>
    <trip id="veh191" type="veh_passenger" depart="2240.37" departLane="best" from="22894986#4" to="22894967#5"/>
    <trip id="veh192" type="veh_passenger" depart="2252.10" departLane="best" from="22894967#4" to="22894968#4"/>
    <trip id="veh193" type="veh_passenger" depart="2263.83" departLane="best" departSpeed="max" from="22894984#0" to="-311420898#15"/>
    <trip id="veh194" type="veh_passenger" depart="2275.56" departLane="best" from="22894994#1" to="-22894986#3"/>
    <trip id="veh195" type="veh_passenger" depart="2287.29" departLane="best" from="22894971#5" to="22894980#2"/>
    <trip id="veh196" type="veh_passenger" depart="2299.02" departLane="best" from="22894975#0" to="-453265905"/>
    <trip id="veh197" type="veh_passenger" depart="2310.75" departLane="best" departSpeed="max" from="22894976#0" to="371652319#4"/>
    <trip id="veh198" type="veh_passenger" depart="2322.48" departLane="best" from="-311420898#15" to="22894987#3"/>
    <trip id="veh199" type="veh_passenger" depart="2334.21" departLane="best" departSpeed="max" from="371652319#0" to="22894995#6"/>
    <trip id="veh200" type="veh_passenger" depart="2345.94" departLane="best" from="22894970#8" to="-22894968#1"/>
    <trip id="veh201" type="veh_passenger" depart="2357.67" departLane="best" departSpeed="max" from="371652319#0" to="453265906"/>
    <trip id="veh202" type="veh_passenger" depart="2369.40" departLane="best" departSpeed="max" from="22894976#0" to="22894995#3"/>
    <trip id="veh203" type="veh_passenger" depart="2381.13" departLane="best" departSpeed="max" from="22894984#0" to="22894985#1"/>
    <trip id="veh204" type="veh_passenger" depart="2392.86" departLane="best" departSpeed="max" from="22894976#0" to="-22894968#5"/>
    <trip id="veh205" type="veh_passenger" depart="2404.59" departLane="best" departSpeed="max" from="22894970#0" to="22894987#2"/>
    <trip id="veh206" type="veh_passenger" depart="2416.32" departLane="best" from="22894971#4" to="-311420898#3"/>
    <trip id="veh207" type="veh_passenger" depart="2428.05" departLane="best" departSpeed="max" from="22894979#0" to="-311420898#12"/>
    <trip id="veh208" type="veh_passenger" depart="2439.78" departLane="best" departSpeed="max" from="22894986#0" to="-22894968#4"/>
    <trip id="veh209" type="veh_passenger" depart="2451.51" departLane="best" from="22894971#2" to="22894980#3"/>
    <trip id="veh210" type="veh_passenger" depart="2463.24" departLane="best" from="22894968#4" to="22894986#9"/>
    <trip id="veh211" type="veh_passenger" depart="2474.97" departLane="best" from="-311420898#20" to="22894975#1"/>
    <trip id="veh212" type="veh_passenger" depart="2486.70" departLane="best" departSpeed="max" from="-22894986#10" to="22894970#9"/>
    <trip id="veh213" type="veh_passenger" depart="2498.43" departLane="best" departSpeed="max" from="-453265906" to="22894968#5"/>
    <trip id="veh214" type="veh_passenger" depart="2510.15" departLane="best" departSpeed="max" from="311420898#0" to="22894970#9"/>
    <trip id="veh215" type="veh_passenger" depart="2521.88" departLane="best" departSpeed="max" from="22894967#0" to="-22894986#8"/>
    <trip id="veh216" type="veh_passenger" depart="2533.61" departLane="best" from="978845777#1" to="22894970#3"/>
    <trip id="veh217" type="veh_passenger" depart="2545.34" departLane="best" departSpeed="max" from="22894987#0" to="22894995#6"/>
    <trip id="veh218" type="veh_passenger" depart="2557.07" departLane="best" departSpeed="max" from="22894987#0" to="22894995#6"/>
    <trip id="veh219" type="veh_passenger" depart="2568.80" departLane="best" from="-311420898#18" to="22894986#9"/>
    <trip id="veh220" type="veh_passenger" depart="2580.53" departLane="best" departSpeed="max" from="22894984#0" to="-453265907#1"/>
    <trip id="veh221" type="veh_passenger" depart="2592.26" departLane="best" departSpeed="max" from="22894994#0" to="22894995#6"/>
    <trip id="veh222" type="veh_passenger" depart="2603.99" departLane="best" from="-311420898#3" to="22894985#2"/>
    <trip id="veh223" type="veh_passenger" depart="2615.72" departLane="best" departSpeed="max" from="453265907#0" to="22894970#9"/>
    <trip id="veh224" type="veh_passenger" depart="2627.45" departLane="best" departSpeed="max" from="22894995#0" to="22894986#4"/>
    <trip id="veh225" type="veh_passenger" depart="2639.18" departLane="best" departSpeed="max" from="22894994#0" to="22894985#2"/>
    <trip id="veh226" type="veh_passenger" depart="2650.91" departLane="best" from="-311420898#12" to="22894995#6"/>
    <trip id="veh227" type="veh_passenger" depart="2662.64" departLane="best" from="311420898#9" to="22894985#1"/>
    <trip id="veh228" type="veh_passenger" depart="2674.37" departLane="best" from="311420898#17" to="978845777#2"/>
    <trip id="veh229" type="veh_passenger" depart="2686.10" departLane="best" departSpeed="max" from="22894976#0" to="22894970#8"/>
    <trip id="veh230" type="veh_passenger" depart="2697.83" departLane="best" departSpeed="max" from="22894980#0" to="22894970#2"/>
    <trip id="veh231" type="veh_passenger" depart="2709.56" departLane="best" from="311420898#9" to="311420898#19"/>