<?xml version="1.0" encoding="UTF-8"?>

<!-- generated on 2024-11-25 22:41:32 by Eclipse SUMO netedit Version 1.21.0
-->

<routes xmlns:xsi="http://www.w3.org/2001/XMLSchema-instance" xsi:noNamespaceSchemaLocation="http://sumo.dlr.de/xsd/routes_file.xsd">
    <!-- VTypes -->
    <vType id="bus_bus" vClass="bus"/>
    <vType id="motorcycle_motorcycle" vClass="motorcycle"/>
    <vType id="truck_truck" vClass="truck"/>
    <vType id="veh_passenger" vClass="passenger"/>
    <!-- Vehicles, persons and containers (sorted by depart) -->
    <trip id="motorcycle0" type="motorcycle_motorcycle" depart="0.00" departLane="best" from="22894726#0" to="1230991531#2"/>
    <trip id="veh0" type="veh_passenger" depart="0.00" departLane="best" departSpeed="max" from="1176284081#0" to="1231081072#0"/>
    <trip id="veh1" type="veh_passenger" depart="17.10" departLane="best" from="1231081075#0" to="436693564#0"/>
    <trip id="veh2" type="veh_passenger" depart="34.20" departLane="best" departSpeed="max" from="1231081067" to="-452636498#0"/>
    <trip id="veh3" type="veh_passenger" depart="51.30" departLane="best" departSpeed="max" from="1176284081#0" to="22894718#3"/>
    <trip id="motorcycle1" type="motorcycle_motorcycle" depart="64.13" departLane="best" from="1188486680#0" to="1000626587"/>
    <trip id="truck2" type="truck_truck" depart="64.13" departLane="best" departSpeed="max" from="1231081067" to="1000626587"/>
    <trip id="veh5" type="veh_passenger" depart="85.50" departLane="best" departSpeed="max" from="22894596#0" to="272846745#0"/>
    <trip id="truck3" type="truck_truck" depart="96.19" departLane="best" from="965382811#0" to="371652324#1"/>
    <trip id="veh7" type="veh_passenger" depart="119.70" departLane="best" departSpeed="max" from="1231081052#0" to="1167135178#1"/>
    <trip id="bus2" type="bus_bus" depart="128.25" departLane="best" departSpeed="max" from="1231081067" to="1000626587"/>
    <trip id="motorcycle2" type="motorcycle_motorcycle" depart="128.25" departLane="best" from="452636498#1" to="436693564#0"/>
    <trip id="truck4" type="truck_truck" depart="128.25" departLane="best" departSpeed="max" from="461097291" to="452636504"/>
    <trip id="veh8" type="veh_passenger" depart="136.80" departLane="best" departSpeed="max" from="-484667608" to="-461155573#1"/>
    <trip id="truck5" type="truck_truck" depart="160.32" departLane="best" departSpeed="max" from="461160931" to="219035199#1"/>
    <trip id="veh10" type="veh_passenger" depart="171.00" departLane="best" from="1231081076#0" to="60514671#2"/>
    <trip id="veh11" type="veh_passenger" depart="188.11" departLane="best" departSpeed="max" from="1231081067" to="272846745#0"/>
    <trip id="bus3" type="bus_bus" depart="192.38" departLane="best" from="965382811#0" to="371652324#1"/>
    <trip id="motorcycle3" type="motorcycle_motorcycle" depart="192.38" departLane="best" departSpeed="max" from="461160931" to="-452636498#22"/>
    <trip id="truck6" type="truck_truck" depart="192.38" departLane="best" departSpeed="max" from="22894596#0" to="1167135178#1"/>
    <trip id="veh12" type="veh_passenger" depart="205.21" departLane="best" from="461097293#0" to="436693564#0"/>
    <trip id="veh14" type="veh_passenger" depart="239.41" departLane="best" departSpeed="max" from="1176284081#0" to="1231081072#0"/>
    <trip id="bus4" type="bus_bus" depart="256.51" departLane="best" departSpeed="max" from="461097291" to="452636504"/>
    <trip id="truck8" type="truck_truck" depart="256.51" departLane="best" from="965382812#0" to="22894667#0"/>
    <trip id="veh15" type="veh_passenger" depart="256.51" departLane="best" departSpeed="max" from="-484667608" to="1231081072#0"/>
    <trip id="veh16" type="veh_passenger" depart="273.61" departLane="best" departSpeed="max" from="-484667608" to="1231081072#0"/>
    <trip id="truck9" type="truck_truck" depart="288.57" departLane="best" from="965382812#0" to="22894718#1"/>
    <trip id="veh17" type="veh_passenger" depart="290.71" departLane="best" departSpeed="max" from="22894596#0" to="1231081074"/>
    <trip id="veh18" type="veh_passenger" depart="307.81" departLane="best" departSpeed="max" from="1176284081#0" to="588096972#0"/>
    <trip id="bus5" type="bus_bus" depart="320.63" departLane="best" departSpeed="max" from="461160931" to="219035199#1"/>
    <trip id="motorcycle5" type="motorcycle_motorcycle" depart="320.63" departLane="best" departSpeed="max" from="1000626586#0" to="22894597#0"/>
    <trip id="veh19" type="veh_passenger" depart="324.91" departLane="best" departSpeed="max" from="22894596#0" to="436693564#0"/>
    <trip id="truck11" type="truck_truck" depart="352.70" departLane="best" departSpeed="max" from="1176284081#0" to="371652324#1"/>
    <trip id="veh21" type="veh_passenger" depart="359.11" departLane="best" departSpeed="max" from="461097291" to="452636504"/>
    <trip id="veh22" type="veh_passenger" depart="376.21" departLane="best" departSpeed="max" from="1176284081#0" to="-452636498#0"/>
    <trip id="bus6" type="bus_bus" depart="384.76" departLane="best" departSpeed="max" from="22894596#0" to="1167135178#1"/>
    <trip id="motorcycle6" type="motorcycle_motorcycle" depart="384.76" departLane="best" from="-219035192" to="1000624456#0"/>
    <trip id="truck12" type="truck_truck" depart="384.76" departLane="best" departSpeed="max" from="461155573#0" to="1167135178#1"/>
    <trip id="veh23" type="veh_passenger" depart="393.31" departLane="best" departSpeed="max" from="1231081052#0" to="1231081072#0"/>
    <trip id="veh24" type="veh_passenger" depart="410.41" departLane="best" departSpeed="max" from="1176284081#0" to="588096972#0"/>
    <trip id="truck13" type="truck_truck" depart="416.82" departLane="best" from="-1000626586#1" to="1231081072#0"/>
    <trip id="veh25" type="veh_passenger" depart="427.51" departLane="best" from="461097295#0" to="1231081072#0"/>
    <trip id="motorcycle7" type="motorcycle_motorcycle" depart="448.89" departLane="best" from="22894726#2" to="22894718#0"/>
    <trip id="truck14" type="truck_truck" depart="448.89" departLane="best" from="1230991531#0" to="-452636498#0"/>
    <trip id="veh28" type="veh_passenger" depart="478.81" departLane="best" departSpeed="max" from="1176284081#0" to="1231081072#0"/>
    <trip id="truck15" type="truck_truck" depart="480.95" departLane="best" departSpeed="max" from="1176284081#0" to="461160932#1"/>
    <trip id="veh29" type="veh_passenger" depart="495.91" departLane="best" from="1231081079" to="1231081072#0"/>
    <trip id="bus8" type="bus_bus" depart="513.01" departLane="best" from="965382812#0" to="22894667#0"/>
    <trip id="motorcycle8" type="motorcycle_motorcycle" depart="513.01" departLane="best" departSpeed="max" from="-1000626586#1" to="22894721#0"/>
    <trip id="truck16" type="truck_truck" depart="513.01" departLane="best" departSpeed="max" from="1000626586#0" to="1231081072#0"/>
    <trip id="veh31" type="veh_passenger" depart="530.12" departLane="best" from="965382812#0" to="22894718#0"/>
    <trip id="veh32" type="veh_passenger" depart="547.22" departLane="best" departSpeed="max" from="-484667608" to="-452636498#18"/>
    <trip id="veh33" type="veh_passenger" depart="564.32" departLane="best" from="1000624457#0" to="436693564#0"/>
    <trip id="bus9" type="bus_bus" depart="577.14" departLane="best" from="965382812#0" to="22894718#1"/>
    <trip id="veh34" type="veh_passenger" depart="581.42" departLane="best" from="452636498#6" to="1231081080#0"/>
    <trip id="veh35" type="veh_passenger" depart="598.52" departLane="best" departSpeed="max" from="-22894653" to="452636498#25"/>
    <trip id="veh36" type="veh_passenger" depart="615.62" departLane="best" from="22894720#4" to="272846745#0"/>
    <trip id="veh37" type="veh_passenger" depart="632.72" departLane="best" departSpeed="max" from="1231081067" to="60514671#2"/>
    <trip id="motorcycle10" type="motorcycle_motorcycle" depart="641.27" departLane="best" from="460561514#0" to="-452636498#5"/>
    <trip id="veh38" type="veh_passenger" depart="649.82" departLane="best" from="461097295#0" to="1231081072#0"/>
    <trip id="veh39" type="veh_passenger" depart="666.92" departLane="best" departSpeed="max" from="461155573#0" to="588096971#0"/>
    <trip id="veh40" type="veh_passenger" depart="684.02" departLane="best" departSpeed="max" from="-219035192" to="1167135178#1"/>
    <trip id="veh41" type="veh_passenger" depart="701.12" departLane="best" departSpeed="max" from="452636498#0" to="272846745#0"/>
    <trip id="bus11" type="bus_bus" depart="705.39" departLane="best" departSpeed="max" from="1176284081#0" to="371652324#1"/>
    <trip id="motorcycle11" type="motorcycle_motorcycle" depart="705.39" departLane="best" from="1231081070#0" to="-461160932#0"/>
    <trip id="veh42" type="veh_passenger" depart="718.22" departLane="best" from="452636498#1" to="272846745#0"/>
    <trip id="veh43" type="veh_passenger" depart="735.32" departLane="best" from="-1000626586#1" to="1231081072#0"/>
    <trip id="veh44" type="veh_passenger" depart="752.42" departLane="best" departSpeed="max" from="22894653" to="588096971#0"/>
    <trip id="bus12" type="bus_bus" depart="769.52" departLane="best" departSpeed="max" from="461155573#0" to="1167135178#1"/>
    <trip id="motorcycle12" type="motorcycle_motorcycle" depart="769.52" departLane="best" from="461097295#0" to="1231081073#2"/>
    <trip id="truck24" type="truck_truck" depart="769.52" departLane="best" from="-455492080#2" to="461160932#1"/>
    <trip id="veh45" type="veh_passenger" depart="769.52" departLane="best" from="461097295#0" to="460561519#0"/>
    <trip id="veh46" type="veh_passenger" depart="786.62" departLane="best" from="1188486680#0" to="452636498#25"/>
    <trip id="veh47" type="veh_passenger" depart="803.72" departLane="best" from="461097295#0" to="60514671#2"/>
    <trip id="veh48" type="veh_passenger" depart="820.82" departLane="best" from="1231081070#0" to="272846745#0"/>
    <trip id="bus13" type="bus_bus" depart="833.65" departLane="best" from="-1000626586#1" to="1231081072#0"/>
    <trip id="motorcycle13" type="motorcycle_motorcycle" depart="833.65" departLane="best" from="-452636498#24" to="-452636498#24"/>
    <trip id="truck26" type="truck_truck" depart="833.65" departLane="best" departSpeed="max" from="22894596#0" to="452636498#25"/>
    <trip id="veh49" type="veh_passenger" depart="837.92" departLane="best" departSpeed="max" from="1176284081#0" to="461097295#0"/>
    <trip id="veh50" type="veh_passenger" depart="855.02" departLane="best" from="1231081077#0" to="452636498#25"/>
    <trip id="truck27" type="truck_truck" depart="865.71" departLane="best" departSpeed="max" from="-484667608" to="60514671#2"/>
    <trip id="veh51" type="veh_passenger" depart="872.12" departLane="best" departSpeed="max" from="1176284081#0" to="1231081072#0"/>
    <trip id="bus14" type="bus_bus" depart="897.78" departLane="best" from="1230991531#0" to="-452636498#0"/>
    <trip id="truck28" type="truck_truck" depart="897.78" departLane="best" departSpeed="max" from="461155573#0" to="1167135178#1"/>
    <trip id="veh53" type="veh_passenger" depart="906.33" departLane="best" departSpeed="max" from="1000626586#0" to="1231081072#0"/>
    <trip id="veh54" type="veh_passenger" depart="923.43" departLane="best" departSpeed="max" from="1231081052#0" to="436693564#0"/>
    <trip id="truck29" type="truck_truck" depart="929.84" departLane="best" from="-452636498#24" to="272846745#0"/>
    <trip id="veh55" type="veh_passenger" depart="940.53" departLane="best" departSpeed="max" from="1176284081#0" to="1231081072#0"/>
    <trip id="veh56" type="veh_passenger" depart="957.63" departLane="best" from="-455492080#2" to="-461155573#1"/>
    <trip id="bus15" type="bus_bus" depart="961.90" departLane="best" departSpeed="max" from="1176284081#0" to="461160932#1"/>
    <trip id="truck30" type="truck_truck" depart="961.90" departLane="best" departSpeed="max" from="1231081067" to="-461160932#0"/>
    <trip id="veh57" type="veh_passenger" depart="974.73" departLane="best" departSpeed="max" from="1176284081#0" to="1000626587"/>
    <trip id="veh58" type="veh_passenger" depart="991.83" departLane="best" departSpeed="max" from="461160931" to="371652324#1"/>
    <trip id="truck31" type="truck_truck" depart="993.97" departLane="best" departSpeed="max" from="461097291" to="452636498#22"/>
    <trip id="veh59" type="veh_passenger" depart="1008.93" departLane="best" departSpeed="max" from="1231081067" to="452636504"/>
    <trip id="bus16" type="bus_bus" depart="1026.03" departLane="best" departSpeed="max" from="1000626586#0" to="1231081072#0"/>
    <trip id="motorcycle16" type="motorcycle_motorcycle" depart="1026.03" departLane="best" departSpeed="max" from="22894596#0" to="60514671#2"/>
    <trip id="truck32" type="truck_truck" depart="1026.03" departLane="best" from="-461160932#2" to="461097293#0"/>
    <trip id="veh61" type="veh_passenger" depart="1043.13" departLane="best" departSpeed="max" from="-484667608" to="165087293#0"/>
    <trip id="truck33" type="truck_truck" depart="1058.09" departLane="best" from="22894721#3" to="1167135178#1"/>
    <trip id="motorcycle17" type="motorcycle_motorcycle" depart="1090.16" departLane="best" from="1231081075#0" to="22894718#1"/>
    <trip id="truck34" type="truck_truck" depart="1090.16" departLane="best" from="-455492080#2" to="452636498#23"/>
    <trip id="veh64" type="veh_passenger" depart="1094.43" departLane="best" from="-455492080#2" to="1231081072#0"/>
    <trip id="truck35" type="truck_truck" depart="1122.22" departLane="best" from="22894721#3" to="1167135178#1"/>
    <trip id="veh66" type="veh_passenger" depart="1128.63" departLane="best" from="1231081078" to="-452636498#21"/>
    <trip id="veh67" type="veh_passenger" depart="1145.73" departLane="best" from="965382812#0" to="460561519#0"/>
    <trip id="motorcycle18" type="motorcycle_motorcycle" depart="1154.28" departLane="best" departSpeed="max" from="461097291" to="22894731#0"/>
    <trip id="truck36" type="truck_truck" depart="1154.28" departLane="best" from="460561514#0" to="22894718#3"/>
    <trip id="veh68" type="veh_passenger" depart="1162.83" departLane="best" departSpeed="max" from="461097291" to="1167135178#1"/>
    <trip id="veh69" type="veh_passenger" depart="1179.93" departLane="best" departSpeed="max" from="1231081067" to="452636498#25"/>
    <trip id="veh70" type="veh_passenger" depart="1197.03" departLane="best" departSpeed="max" from="1231081067" to="965359268#0"/>
    <trip id="veh71" type="veh_passenger" depart="1214.13" departLane="best" departSpeed="max" from="1176284081#0" to="452636504"/>
    <trip id="motorcycle19" type="motorcycle_motorcycle" depart="1218.41" departLane="best" from="461097295#0" to="22894718#0"/>
    <trip id="truck38" type="truck_truck" depart="1218.41" departLane="best" from="588096972#0" to="461160932#2"/>
    <trip id="veh72" type="veh_passenger" depart="1231.23" departLane="best" departSpeed="max" from="1231081067" to="1231081080#0"/>
    <trip id="truck39" type="truck_truck" depart="1250.47" departLane="best" departSpeed="max" from="1231081052#0" to="588096971#0"/>
    <trip id="veh74" type="veh_passenger" depart="1265.44" departLane="best" from="1231081078" to="452636498#25"/>
    <trip id="motorcycle20" type="motorcycle_motorcycle" depart="1282.54" departLane="best" from="317988203#0" to="-452636498#0"/>
    <trip id="truck40" type="truck_truck" depart="1282.54" departLane="best" departSpeed="max" from="1000626586#0" to="460561519#0"/>
    <trip id="veh75" type="veh_passenger" depart="1282.54" departLane="best" from="460561516#0" to="436693564#0"/>
    <trip id="veh76" type="veh_passenger" depart="1299.64" departLane="best" from="1231081077#0" to="452636498#25"/>
    <trip id="truck41" type="truck_truck" depart="1314.60" departLane="best" from="22894726#0" to="1231081097#0"/>
    <trip id="veh77" type="veh_passenger" depart="1316.74" departLane="best" from="452636498#1" to="436693564#0"/>
    <trip id="motorcycle21" type="motorcycle_motorcycle" depart="1346.66" departLane="best" departSpeed="max" from="1000626586#0" to="-1230991531#2"/>
    <trip id="truck42" type="truck_truck" depart="1346.66" departLane="best" from="588096972#0" to="-60514671#1"/>
    <trip id="veh80" type="veh_passenger" depart="1368.04" departLane="best" departSpeed="max" from="-484667608" to="1230991531#2"/>
    <trip id="truck43" type="truck_truck" depart="1378.73" departLane="best" departSpeed="max" from="452636498#0" to="1231081072#0"/>
    <trip id="veh81" type="veh_passenger" depart="1385.14" departLane="best" departSpeed="max" from="-219035192" to="436693564#0"/>
    <trip id="veh82" type="veh_passenger" depart="1402.24" departLane="best" departSpeed="max" from="1176284081#0" to="1000626587"/>
    <trip id="motorcycle22" type="motorcycle_motorcycle" depart="1410.79" departLane="best" from="-452636498#21" to="1000626587"/>
    <trip id="veh83" type="veh_passenger" depart="1419.34" departLane="best" departSpeed="max" from="461155573#0" to="1231081072#0"/>
    <trip id="veh84" type="veh_passenger" depart="1436.44" departLane="best" departSpeed="max" from="-219035192" to="436693564#0"/>
    <trip id="veh85" type="veh_passenger" depart="1453.54" departLane="best" departSpeed="max" from="1231081067" to="436693564#0"/>
    <trip id="veh86" type="veh_passenger" depart="1470.64" departLane="best" departSpeed="max" from="1176284081#0" to="452636498#23"/>
    <trip id="motorcycle23" type="motorcycle_motorcycle" depart="1474.92" departLane="best" from="-452636498#26" to="-1230991531#1"/>
    <trip id="veh87" type="veh_passenger" depart="1487.74" departLane="best" departSpeed="max" from="1176284081#0" to="1231081077#0"/>
    <trip id="veh88" type="veh_passenger" depart="1504.84" departLane="best" from="22894667#0" to="1231081072#0"/>
    <trip id="truck47" type="truck_truck" depart="1506.98" departLane="best" departSpeed="max" from="461160931" to="272846745#0"/>
    <trip id="veh89" type="veh_passenger" depart="1521.94" departLane="best" departSpeed="max" from="1231081052#0" to="-452636498#9"/>
    <trip id="bus24" type="bus_bus" depart="1539.04" departLane="best" from="-455492080#2" to="461160932#1"/>
    <trip id="motorcycle24" type="motorcycle_motorcycle" depart="1539.04" departLane="best" from="22894721#3" to="1231081076#0"/>
    <trip id="truck48" type="truck_truck" depart="1539.04" departLane="best" from="460561514#0" to="-461160932#2"/>
    <trip id="veh90" type="veh_passenger" depart="1539.04" departLane="best" departSpeed="max" from="-484667608" to="1231081072#0"/>
    <trip id="veh91" type="veh_passenger" depart="1556.14" departLane="best" departSpeed="max" from="1176284081#0" to="588096971#0"/>
    <trip id="truck49" type="truck_truck" depart="1571.11" departLane="best" from="22894721#0" to="1231081072#0"/>
    <trip id="veh92" type="veh_passenger" depart="1573.24" departLane="best" from="461097295#0" to="22894718#3"/>
    <trip id="veh93" type="veh_passenger" depart="1590.35" departLane="best" departSpeed="max" from="-219035192" to="965359268#0"/>
    <trip id="motorcycle25" type="motorcycle_motorcycle" depart="1603.17" departLane="best" from="1231081074" to="1000624457#0"/>
    <trip id="truck50" type="truck_truck" depart="1603.17" departLane="best" departSpeed="max" from="461097291" to="452636504"/>
    <trip id="veh94" type="veh_passenger" depart="1607.45" departLane="best" departSpeed="max" from="22894596#0" to="-219035192"/>
    <trip id="veh95" type="veh_passenger" depart="1624.55" departLane="best" departSpeed="max" from="22894596#0" to="588096972#0"/>
    <trip id="veh96" type="veh_passenger" depart="1641.65" departLane="best" departSpeed="max" from="1000626586#0" to="1000624457#1"/>
    <trip id="veh97" type="veh_passenger" depart="1658.75" departLane="best" from="-60514671#5" to="272846745#0"/>
    <trip id="bus26" type="bus_bus" depart="1667.30" departLane="best" departSpeed="max" from="22894596#0" to="452636498#25"/>
    <trip id="motorcycle26" type="motorcycle_motorcycle" depart="1667.30" departLane="best" departSpeed="max" from="1176284081#0" to="588096971#0"/>
    <trip id="truck52" type="truck_truck" depart="1667.30" departLane="best" from="22894731#0" to="-1000626586#1"/>
    <trip id="veh99" type="veh_passenger" depart="1692.95" departLane="best" departSpeed="max" from="22894596#0" to="1231081072#0"/>
    <trip id="truck53" type="truck_truck" depart="1699.36" departLane="best" departSpeed="max" from="461155573#0" to="272846745#0"/>
    <trip id="veh101" type="veh_passenger" depart="1727.15" departLane="best" departSpeed="max" from="461097291" to="-461155573#1"/>
    <trip id="bus27" type="bus_bus" depart="1731.42" departLane="best" departSpeed="max" from="-484667608" to="60514671#2"/>
    <trip id="motorcycle27" type="motorcycle_motorcycle" depart="1731.42" departLane="best" from="22894726#2" to="22894726#2"/>
    <trip id="truck54" type="truck_truck" depart="1731.42" departLane="best" departSpeed="max" from="1176284081#0" to="1231081072#0"/>
    <trip id="veh102" type="veh_passenger" depart="1744.25" departLane="best" from="1230991531#0" to="452636504"/>
    <trip id="veh103" type="veh_passenger" depart="1761.35" departLane="best" departSpeed="max" from="22894596#0" to="1231081072#0"/>
    <trip id="veh104" type="veh_passenger" depart="1778.45" departLane="best" departSpeed="max" from="1231081067" to="-272846745#1"/>
    <trip id="bus28" type="bus_bus" depart="1795.55" departLane="best" departSpeed="max" from="461155573#0" to="1167135178#1"/>
    <trip id="motorcycle28" type="motorcycle_motorcycle" depart="1795.55" departLane="best" departSpeed="max" from="-484667608" to="452636498#22"/>
    <trip id="truck56" type="truck_truck" depart="1795.55" departLane="best" from="461097294" to="452636504"/>
    <trip id="veh105" type="veh_passenger" depart="1795.55" departLane="best" departSpeed="max" from="-484667608" to="461160932#1"/>
    <trip id="veh106" type="veh_passenger" depart="1812.65" departLane="best" departSpeed="max" from="461155573#0" to="272846745#0"/>
    <trip id="truck57" type="truck_truck" depart="1827.61" departLane="best" from="1231081070#0" to="-1000626586#1"/>
    <trip id="bus29" type="bus_bus" depart="1859.68" departLane="best" from="-452636498#24" to="272846745#0"/>
    <trip id="motorcycle29" type="motorcycle_motorcycle" depart="1859.68" departLane="best" departSpeed="max" from="-484667608" to="1231081078"/>
    <trip id="truck58" type="truck_truck" depart="1859.68" departLane="best" departSpeed="max" from="1231081067" to="452636504"/>
    <trip id="veh109" type="veh_passenger" depart="1863.95" departLane="best" departSpeed="max" from="461155573#0" to="1231081071#0"/>
    <trip id="veh110" type="veh_passenger" depart="1881.05" departLane="best" departSpeed="max" from="1176284081#0" to="461160932#1"/>
    <trip id="truck59" type="truck_truck" depart="1891.74" departLane="best" from="461097294" to="60514671#2"/>
    <trip id="veh111" type="veh_passenger" depart="1898.15" departLane="best" from="452636498#10" to="461160932#1"/>
    <trip id="veh112" type="veh_passenger" depart="1915.25" departLane="best" departSpeed="max" from="1231081067" to="436693564#0"/>
    <trip id="bus30" type="bus_bus" depart="1923.80" departLane="best" departSpeed="max" from="1231081067" to="-461160932#0"/>
    <trip id="motorcycle30" type="motorcycle_motorcycle" depart="1923.80" departLane="best" from="965382811#0" to="22894755#1"/>
    <trip id="truck60" type="truck_truck" depart="1923.80" departLane="best" from="1231081074" to="461160932#1"/>
    <trip id="veh113" type="veh_passenger" depart="1932.35" departLane="best" from="461097294" to="60514671#2"/>
    <trip id="veh115" type="veh_passenger" depart="1966.56" departLane="best" departSpeed="max" from="-22894653" to="452636498#25"/>
    <trip id="veh116" type="veh_passenger" depart="1983.66" departLane="best" departSpeed="max" from="1231081052#0" to="588096971#0"/>
    <trip id="bus31" type="bus_bus" depart="1987.93" departLane="best" departSpeed="max" from="461097291" to="452636498#22"/>
    <trip id="motorcycle31" type="motorcycle_motorcycle" depart="1987.93" departLane="best" from="22894653" to="436693564#0"/>
    <trip id="truck62" type="truck_truck" depart="1987.93" departLane="best" departSpeed="max" from="1000626586#0" to="1231081072#0"/>
    <trip id="veh118" type="veh_passenger" depart="2017.86" departLane="best" from="452636498#22" to="-60514671#1"/>
    <trip id="veh119" type="veh_passenger" depart="2034.96" departLane="best" departSpeed="max" from="1176284081#0" to="460561519#0"/>
    <trip id="bus32" type="bus_bus" depart="2052.06" departLane="best" from="-461160932#2" to="461097293#0"/>
    <trip id="motorcycle32" type="motorcycle_motorcycle" depart="2052.06" departLane="best" from="-455492080#2" to="452636504"/>
    <trip id="truck64" type="truck_truck" depart="2052.06" departLane="best" from="22894726#2" to="452636504"/>
    <trip id="veh120" type="veh_passenger" depart="2052.06" departLane="best" from="460561514#0" to="1231081072#0"/>
    <trip id="truck65" type="truck_truck" depart="2084.12" departLane="best" from="22894726#2" to="452636504"/>
    <trip id="bus33" type="bus_bus" depart="2116.18" departLane="best" from="22894721#3" to="1167135178#1"/>
    <trip id="motorcycle33" type="motorcycle_motorcycle" depart="2116.18" departLane="best" departSpeed="max" from="1000626586#0" to="-219035192"/>
    <trip id="truck66" type="truck_truck" depart="2116.18" departLane="best" from="-461160932#1" to="436693564#0"/>
    <trip id="veh124" type="veh_passenger" depart="2120.46" departLane="best" departSpeed="max" from="461160931" to="1000624457#1"/>
    <trip id="veh126" type="veh_passenger" depart="2154.66" departLane="best" departSpeed="max" from="219035192" to="22894721#0"/>
    <trip id="veh127" type="veh_passenger" depart="2171.76" departLane="best" departSpeed="max" from="1231081067" to="436693564#0"/>
    <trip id="bus34" type="bus_bus" depart="2180.31" departLane="best" from="-455492080#2" to="452636498#23"/>
    <trip id="motorcycle34" type="motorcycle_motorcycle" depart="2180.31" departLane="best" departSpeed="max" from="1231081052#0" to="1188486680#1"/>
    <trip id="truck68" type="truck_truck" depart="2180.31" departLane="best" from="-60514671#1" to="272846745#0"/>
    <trip id="veh128" type="veh_passenger" depart="2188.86" departLane="best" departSpeed="max" from="1176284081#0" to="452636498#15"/>
    <trip id="veh129" type="veh_passenger" depart="2205.96" departLane="best" from="-1000626586#1" to="588096971#0"/>
    <trip id="truck69" type="truck_truck" depart="2212.38" departLane="best" departSpeed="max" from="461097291" to="60514671#2"/>
    <trip id="veh130" type="veh_passenger" depart="2223.06" departLane="best" from="1231081077#0" to="452636498#25"/>
    <trip id="veh131" type="veh_passenger" depart="2240.16" departLane="best" from="1231081075#0" to="436693564#0"/>
    <trip id="bus35" type="bus_bus" depart="2244.44" departLane="best" from="22894721#3" to="1167135178#1"/>
    <trip id="motorcycle35" type="motorcycle_motorcycle" depart="2244.44" departLane="best" from="1000624457#1" to="460561516#0"/>
    <trip id="truck70" type="truck_truck" depart="2244.44" departLane="best" from="467940592#2" to="1231081080#0"/>
    <trip id="veh132" type="veh_passenger" depart="2257.26" departLane="best" departSpeed="max" from="1231081067" to="-461155573#1"/>
    <trip id="veh133" type="veh_passenger" depart="2274.36" departLane="best" departSpeed="max" from="22894596#0" to="1231081072#0"/>
    <trip id="truck71" type="truck_truck" depart="2276.50" departLane="best" from="-461160932#0" to="965359268#0"/>
    <trip id="bus36" type="bus_bus" depart="2308.57" departLane="best" from="460561514#0" to="22894718#3"/>
    <trip id="motorcycle36" type="motorcycle_motorcycle" depart="2308.57" departLane="best" departSpeed="max" from="461155573#0" to="1231081072#0"/>
    <trip id="truck72" type="truck_truck" depart="2308.57" departLane="best" departSpeed="max" from="452636498#0" to="60514671#2"/>
    <trip id="veh135" type="veh_passenger" depart="2308.57" departLane="best" from="1188486680#1" to="1231081078"/>
    <trip id="veh136" type="veh_passenger" depart="2325.67" departLane="best" departSpeed="max" from="1000626586#0" to="1231081080#0"/>
    <trip id="truck73" type="truck_truck" depart="2340.63" departLane="best" departSpeed="max" from="1176284081#0" to="460561519#0"/>
    <trip id="veh137" type="veh_passenger" depart="2342.77" departLane="best" departSpeed="max" from="461160931" to="436693564#0"/>
    <trip id="veh138" type="veh_passenger" depart="2359.87" departLane="best" departSpeed="max" from="461155573#0" to="436693564#0"/>
    <trip id="motorcycle37" type="motorcycle_motorcycle" depart="2372.69" departLane="best" from="22894726#2" to="1231081080#0"/>
    <trip id="truck74" type="truck_truck" depart="2372.69" departLane="best" from="1231081079" to="452636498#25"/>
    <trip id="veh139" type="veh_passenger" depart="2376.97" departLane="best" from="-1000626586#1" to="1231081072#0"/>
    <trip id="veh140" type="veh_passenger" depart="2394.07" departLane="best" departSpeed="max" from="1231081067" to="436693564#0"/>
    <trip id="truck75" type="truck_truck" depart="2404.76" departLane="best" departSpeed="max" from="461155573#0" to="1167135178#1"/>
    <trip id="veh142" type="veh_passenger" depart="2428.27" departLane="best" from="460561514#0" to="1167135178#1"/>
    <trip id="bus38" type="bus_bus" depart="2436.82" departLane="best" from="588096972#0" to="461160932#2"/>
    <trip id="truck76" type="truck_truck" depart="2436.82" departLane="best" from="461097294" to="-60514671#5"/>
    <trip id="veh143" type="veh_passenger" depart="2445.37" departLane="best" from="460561516#0" to="452636498#6"/>
    <trip id="veh144" type="veh_passenger" depart="2462.47" departLane="best" from="-452636498#24" to="1231081072#0"/>