<?xml version="1.0" encoding="UTF-8"?>

<!-- generated on 2024-11-25 22:32:09 by Eclipse SUMO netedit Version 1.21.0
<neteditConfiguration xmlns:xsi="http://www.w3.org/2001/XMLSchema-instance" xsi:noNamespaceSchemaLocation="http://sumo.dlr.de/xsd/neteditConfiguration.xsd">

    <input>
        <sumocfg-file value="C:\Users\bd200\OneDrive\ecole\A2024\sécu\Projet-INF6103\Projet\sumo\data_sim\osm.sumocfg"/>
        <additional-files value="C:\Users\bd200\OneDrive\ecole\A2024\sécu\Projet-INF6103\Projet\sumo\data_sim\osm.poly.xml.gz"/>
        <route-files value="C:\Users\bd200\OneDrive\ecole\A2024\sécu\Projet-INF6103\Projet\sumo\data_sim\osm.bus.trips.xml"/>
        <sumo-net-file value="C:\Users\bd200\OneDrive\ecole\A2024\sécu\Projet-INF6103\Projet\sumo\data_sim\osm.net.xml.gz"/>
    </input>

    <output>
        <output-file value="C:\Users\bd200\OneDrive\ecole\A2024\sécu\Projet-INF6103\Projet\sumo\data_sim\osm.net.xml.gz"/>
        <output.street-names value="true"/>
    </output>

    <processing>
        <geometry.min-radius.fix.railways value="false"/>
        <geometry.max-grade.fix value="false"/>
        <offset.disable-normalization value="true"/>
        <lefthand value="0"/>
    </processing>

    <junctions>
        <no-turnarounds value="true"/>
        <junctions.corner-detail value="5"/>
        <junctions.limit-turn-speed value="5.50"/>
        <rectangular-lane-cut value="0"/>
    </junctions>

    <pedestrian>
        <walkingareas value="0"/>
    </pedestrian>

</neteditConfiguration>
-->

<net version="1.20" junctionCornerDetail="5" limitTurnSpeed="5.50" xmlns:xsi="http://www.w3.org/2001/XMLSchema-instance" xsi:noNamespaceSchemaLocation="http://sumo.dlr.de/xsd/net_file.xsd">

    <location netOffset="-604665.23,-5047144.77" convBoundary="0.00,0.00,1008.70,619.34" origBoundary="-73.658604,45.569952,-73.645651,45.575461" projParameter="+proj=utm +zone=18 +ellps=WGS84 +datum=WGS84 +units=m +no_defs"/>

    <type id="highway.primary" priority="12" numLanes="2" speed="27.78" disallow="tram rail_urban rail rail_electric rail_fast ship container cable_car subway aircraft wheelchair scooter drone" oneway="0"/>
    <type id="highway.residential" priority="3" numLanes="1" speed="13.89" disallow="tram rail_urban rail rail_electric rail_fast ship container cable_car subway aircraft wheelchair scooter drone" oneway="0"/>
    <type id="highway.tertiary" priority="10" numLanes="1" speed="22.22" disallow="tram rail_urban rail rail_electric rail_fast ship container cable_car subway aircraft wheelchair scooter drone" oneway="0"/>

    <edge id=":10816336916_0" function="internal">
        <lane id=":10816336916_0_0" index="0" disallow="tram rail_urban rail rail_electric rail_fast ship container cable_car subway aircraft wheelchair scooter drone" speed="3.65" length="4.67" shape="587.28,134.30 588.72,134.38 589.47,134.87 589.53,135.76 588.90,137.06"/>
    </edge>
    <edge id=":11417122375_0" function="internal">
        <lane id=":11417122375_0_0" index="0" allow="bus bicycle" speed="13.89" length="0.30" shape="214.71,601.72 214.57,601.46"/>
        <lane id=":11417122375_0_1" index="1" disallow="pedestrian tram rail_urban rail rail_electric rail_fast ship container cable_car subway aircraft wheelchair scooter drone" speed="13.89" length="0.30" shape="217.57,600.29 217.43,600.02"/>
        <lane id=":11417122375_0_2" index="2" disallow="pedestrian tram rail_urban rail rail_electric rail_fast ship container cable_car subway aircraft wheelchair scooter drone" speed="13.89" length="0.30" shape="220.43,598.86 220.29,598.59"/>
        <lane id=":11417122375_0_3" index="3" disallow="pedestrian tram rail_urban rail rail_electric rail_fast ship container cable_car subway aircraft wheelchair scooter drone" speed="13.89" length="0.30" shape="223.29,597.43 223.15,597.16"/>
    </edge>
    <edge id=":11417122376_0" function="internal">
        <lane id=":11417122376_0_0" index="0" allow="bus bicycle" speed="13.89" length="0.10" shape="228.84,564.79 228.84,564.79"/>
        <lane id=":11417122376_0_1" index="1" disallow="pedestrian tram rail_urban rail rail_electric rail_fast ship container cable_car subway aircraft wheelchair scooter drone" speed="13.89" length="0.10" shape="225.99,566.24 225.99,566.24"/>
        <lane id=":11417122376_0_2" index="2" disallow="pedestrian tram rail_urban rail rail_electric rail_fast ship container cable_car subway aircraft wheelchair scooter drone" speed="13.89" length="0.10" shape="223.13,567.68 223.13,567.68"/>
        <lane id=":11417122376_0_3" index="3" disallow="pedestrian tram rail_urban rail rail_electric rail_fast ship container cable_car subway aircraft wheelchair scooter drone" speed="13.89" length="0.10" shape="220.28,569.13 220.28,569.13"/>
    </edge>
    <edge id=":11417122377_0" function="internal">
        <lane id=":11417122377_0_0" index="0" allow="bus bicycle" speed="13.89" length="0.30" shape="197.62,504.54 197.76,504.81"/>
        <lane id=":11417122377_0_1" index="1" disallow="pedestrian tram rail_urban rail rail_electric rail_fast ship container cable_car subway aircraft wheelchair scooter drone" speed="13.89" length="0.30" shape="194.79,506.03 194.93,506.29"/>
        <lane id=":11417122377_0_2" index="2" disallow="pedestrian tram rail_urban rail rail_electric rail_fast ship container cable_car subway aircraft wheelchair scooter drone" speed="13.89" length="0.30" shape="191.95,507.51 192.09,507.77"/>
        <lane id=":11417122377_0_3" index="3" disallow="pedestrian tram rail_urban rail rail_electric rail_fast ship container cable_car subway aircraft wheelchair scooter drone" speed="13.89" length="0.30" shape="189.12,508.99 189.26,509.26"/>
    </edge>
    <edge id=":11417122378_0" function="internal">
        <lane id=":11417122378_0_0" index="0" allow="bus bicycle" speed="13.89" length="0.30" shape="193.60,496.85 193.73,497.11"/>
        <lane id=":11417122378_0_1" index="1" disallow="pedestrian tram rail_urban rail rail_electric rail_fast ship container cable_car subway aircraft wheelchair scooter drone" speed="13.89" length="0.30" shape="190.76,498.33 190.90,498.59"/>
        <lane id=":11417122378_0_2" index="2" disallow="pedestrian tram rail_urban rail rail_electric rail_fast ship container cable_car subway aircraft wheelchair scooter drone" speed="13.89" length="0.30" shape="187.92,499.81 188.06,500.07"/>
        <lane id=":11417122378_0_3" index="3" disallow="pedestrian tram rail_urban rail rail_electric rail_fast ship container cable_car subway aircraft wheelchair scooter drone" speed="13.89" length="0.30" shape="185.08,501.28 185.23,501.56"/>
    </edge>
    <edge id=":11417122379_0" function="internal">
        <lane id=":11417122379_0_0" index="0" allow="bus bicycle" speed="13.89" length="0.28" shape="178.50,531.53 178.33,531.21"/>
        <lane id=":11417122379_0_1" index="1" disallow="pedestrian tram rail_urban rail rail_electric rail_fast ship container cable_car subway aircraft wheelchair scooter drone" speed="13.89" length="0.28" shape="181.32,530.02 181.17,529.74"/>
        <lane id=":11417122379_0_2" index="2" disallow="pedestrian tram rail_urban rail rail_electric rail_fast ship container cable_car subway aircraft wheelchair scooter drone" speed="13.89" length="0.28" shape="184.14,528.51 184.02,528.28"/>
        <lane id=":11417122379_0_3" index="3" disallow="pedestrian tram rail_urban rail rail_electric rail_fast ship container cable_car subway aircraft wheelchair scooter drone" speed="13.89" length="0.28" shape="186.96,527.00 186.87,526.82"/>
    </edge>
    <edge id=":11417122394_0" function="internal">
        <lane id=":11417122394_0_0" index="0" allow="bus bicycle" speed="13.89" length="0.30" shape="108.99,360.66 108.91,360.40"/>
        <lane id=":11417122394_0_1" index="1" disallow="pedestrian tram rail_urban rail rail_electric rail_fast ship container cable_car subway aircraft wheelchair scooter drone" speed="13.89" length="0.30" shape="112.03,359.65 111.94,359.37"/>
        <lane id=":11417122394_0_2" index="2" disallow="pedestrian tram rail_urban rail rail_electric rail_fast ship container cable_car subway aircraft wheelchair scooter drone" speed="13.89" length="0.30" shape="115.07,358.64 114.97,358.35"/>
        <lane id=":11417122394_0_3" index="3" disallow="pedestrian tram rail_urban rail rail_electric rail_fast ship container cable_car subway aircraft wheelchair scooter drone" speed="13.89" length="0.30" shape="118.10,357.62 118.00,357.32"/>
    </edge>
    <edge id=":11417122395_0" function="internal">
        <lane id=":11417122395_0_0" index="0" allow="bus bicycle" speed="13.89" length="0.30" shape="105.48,256.77 105.57,257.04"/>
        <lane id=":11417122395_0_1" index="1" disallow="pedestrian tram rail_urban rail rail_electric rail_fast ship container cable_car subway aircraft wheelchair scooter drone" speed="13.89" length="0.30" shape="102.44,257.77 102.54,258.06"/>
        <lane id=":11417122395_0_2" index="2" disallow="pedestrian tram rail_urban rail rail_electric rail_fast ship container cable_car subway aircraft wheelchair scooter drone" speed="13.89" length="0.30" shape="99.40,258.78 99.50,259.07"/>
        <lane id=":11417122395_0_3" index="3" disallow="pedestrian tram rail_urban rail rail_electric rail_fast ship container cable_car subway aircraft wheelchair scooter drone" speed="13.89" length="0.30" shape="96.37,259.79 96.46,260.08"/>
    </edge>
    <edge id=":11417122396_0" function="internal">
        <lane id=":11417122396_0_0" index="0" allow="bus bicycle" speed="13.89" length="0.10" shape="78.03,268.32 78.03,268.32"/>
        <lane id=":11417122396_0_1" index="1" disallow="pedestrian tram rail_urban rail rail_electric rail_fast ship container cable_car subway aircraft wheelchair scooter drone" speed="13.89" length="0.10" shape="81.07,267.32 81.07,267.32"/>
        <lane id=":11417122396_0_2" index="2" disallow="pedestrian tram rail_urban rail rail_electric rail_fast ship container cable_car subway aircraft wheelchair scooter drone" speed="13.89" length="0.10" shape="84.11,266.32 84.11,266.32"/>
        <lane id=":11417122396_0_3" index="3" disallow="pedestrian tram rail_urban rail rail_electric rail_fast ship container cable_car subway aircraft wheelchair scooter drone" speed="13.89" length="0.10" shape="87.15,265.32 87.15,265.32"/>
    </edge>
    <edge id=":12272216709_0" function="internal">
        <lane id=":12272216709_0_0" index="0" disallow="tram rail_urban rail rail_electric rail_fast ship container cable_car subway aircraft wheelchair scooter drone" speed="3.65" length="4.67" shape="503.33,11.14 503.38,9.70 503.85,8.94 504.74,8.86 506.05,9.46"/>
    </edge>
    <edge id=":1766686066_0" function="internal">
        <lane id=":1766686066_0_0" index="0" disallow="tram rail_urban rail rail_electric rail_fast ship container cable_car subway aircraft wheelchair scooter drone" speed="5.56" length="11.20" shape="13.65,594.95 8.44,585.04"/>
    </edge>
    <edge id=":1766686066_1" function="internal">
        <lane id=":1766686066_1_0" index="0" disallow="tram rail_urban rail rail_electric rail_fast ship container cable_car subway aircraft wheelchair scooter drone" speed="6.43" length="9.03" shape="15.99,587.22 13.68,588.14 11.65,588.08 9.90,587.05 8.44,585.04"/>
    </edge>
    <edge id=":2036844154_0" function="internal">
        <lane id=":2036844154_0_0" index="0" allow="bus bicycle" speed="6.74" length="8.35" shape="73.24,143.27 71.33,144.65 70.17,146.26 69.76,148.11 70.10,150.19"/>
        <lane id=":2036844154_0_1" index="1" disallow="pedestrian tram rail_urban rail rail_electric rail_fast ship container cable_car subway aircraft wheelchair scooter drone" speed="7.57" length="10.78" shape="73.24,143.27 70.07,145.30 67.98,147.29 66.98,149.25 67.06,151.18"/>
    </edge>
    <edge id=":2036844154_2" function="internal">
        <lane id=":2036844154_2_0" index="0" allow="bus bicycle" speed="13.89" length="9.82" shape="67.02,140.83 70.10,150.19"/>
        <lane id=":2036844154_2_1" index="1" disallow="pedestrian tram rail_urban rail rail_electric rail_fast ship container cable_car subway aircraft wheelchair scooter drone" speed="13.89" length="9.82" shape="63.98,141.84 67.06,151.18"/>
        <lane id=":2036844154_2_2" index="2" disallow="pedestrian tram rail_urban rail rail_electric rail_fast ship container cable_car subway aircraft wheelchair scooter drone" speed="13.89" length="9.82" shape="60.94,142.85 64.01,152.17"/>
        <lane id=":2036844154_2_3" index="3" disallow="pedestrian tram rail_urban rail rail_electric rail_fast ship container cable_car subway aircraft wheelchair scooter drone" speed="13.89" length="9.82" shape="57.91,143.86 60.97,153.16"/>
    </edge>
    <edge id=":2036844162_0" function="internal">
        <lane id=":2036844162_0_0" index="0" allow="bus bicycle" speed="13.89" length="9.36" shape="44.49,168.04 41.46,159.01"/>
        <lane id=":2036844162_0_1" index="1" disallow="pedestrian tram rail_urban rail rail_electric rail_fast ship container cable_car subway aircraft wheelchair scooter drone" speed="13.89" length="9.36" shape="47.51,166.99 44.52,158.06"/>
        <lane id=":2036844162_0_2" index="2" disallow="pedestrian tram rail_urban rail rail_electric rail_fast ship container cable_car subway aircraft wheelchair scooter drone" speed="13.89" length="9.36" shape="50.53,165.93 47.57,157.11"/>
        <lane id=":2036844162_0_3" index="3" disallow="pedestrian tram rail_urban rail rail_electric rail_fast ship container cable_car subway aircraft wheelchair scooter drone" speed="13.89" length="9.36" shape="53.55,164.88 50.63,156.16"/>
    </edge>
    <edge id=":2036844162_4" function="internal">
        <lane id=":2036844162_4_0" index="0" allow="bus bicycle" speed="6.84" length="8.16" shape="38.47,165.89 40.27,164.47 41.37,162.85 41.77,161.03 41.46,159.01"/>
        <lane id=":2036844162_4_1" index="1" disallow="pedestrian tram rail_urban rail rail_electric rail_fast ship container cable_car subway aircraft wheelchair scooter drone" speed="7.68" length="10.51" shape="38.47,165.89 41.52,163.77 43.54,161.75 44.54,159.85 44.52,158.06"/>
    </edge>
    <edge id=":226013947_0" function="internal">
        <lane id=":226013947_0_0" index="0" disallow="tram rail_urban rail rail_electric rail_fast ship container cable_car subway aircraft wheelchair scooter drone" speed="6.47" length="9.03" shape="581.70,147.80 580.20,145.82 578.43,144.81 576.40,144.77 574.10,145.70"/>
    </edge>
    <edge id=":226013947_1" function="internal">
        <lane id=":226013947_1_0" index="0" disallow="tram rail_urban rail rail_electric rail_fast ship container cable_car subway aircraft wheelchair scooter drone" speed="8.33" length="14.46" shape="581.70,147.80 574.58,135.22"/>
    </edge>
    <edge id=":226013947_2" function="internal">
        <lane id=":226013947_2_0" index="0" disallow="tram rail_urban rail rail_electric rail_fast ship container cable_car subway aircraft wheelchair scooter drone" speed="8.10" length="4.03" shape="581.70,147.80 580.30,144.15 580.31,144.03"/>
    </edge>
    <edge id=":226013947_3" function="internal">
        <lane id=":226013947_3_0" index="0" disallow="tram rail_urban rail rail_electric rail_fast ship container cable_car subway aircraft wheelchair scooter drone" speed="3.65" length="1.44" shape="581.70,147.80 581.82,146.37"/>
    </edge>
    <edge id=":226013947_13" function="internal">
        <lane id=":226013947_13_0" index="0" disallow="tram rail_urban rail rail_electric rail_fast ship container cable_car subway aircraft wheelchair scooter drone" speed="8.10" length="10.26" shape="580.31,144.03 580.39,140.91 581.95,138.07 585.00,135.64"/>
    </edge>
    <edge id=":226013947_14" function="internal">
        <lane id=":226013947_14_0" index="0" disallow="tram rail_urban rail rail_electric rail_fast ship container cable_car subway aircraft wheelchair scooter drone" speed="3.65" length="3.23" shape="581.82,146.37 582.32,145.63 583.22,145.59 584.50,146.25"/>
    </edge>
    <edge id=":226013947_4" function="internal">
        <lane id=":226013947_4_0" index="0" disallow="tram rail_urban rail rail_electric rail_fast ship container cable_car subway aircraft wheelchair scooter drone" speed="6.63" length="9.22" shape="586.62,138.40 584.66,139.97 583.65,141.80 583.60,143.89 584.50,146.25"/>
    </edge>
    <edge id=":226013947_5" function="internal">
        <lane id=":226013947_5_0" index="0" disallow="tram rail_urban rail rail_electric rail_fast ship container cable_car subway aircraft wheelchair scooter drone" speed="8.33" length="14.70" shape="586.62,138.40 574.10,145.70"/>
        <lane id=":226013947_5_1" index="1" disallow="tram rail_urban rail rail_electric rail_fast ship container cable_car subway aircraft wheelchair scooter drone" speed="8.33" length="14.70" shape="586.62,138.40 583.50,139.65 580.35,140.22 576.80,141.01 572.50,142.93"/>
    </edge>
    <edge id=":226013947_7" function="internal">
        <lane id=":226013947_7_0" index="0" disallow="tram rail_urban rail rail_electric rail_fast ship container cable_car subway aircraft wheelchair scooter drone" speed="7.99" length="14.23" shape="586.62,138.40 583.01,139.88 579.80,139.85 576.99,138.29 574.58,135.22"/>
    </edge>
    <edge id=":226013947_8" function="internal">
        <lane id=":226013947_8_0" index="0" disallow="tram rail_urban rail rail_electric rail_fast ship container cable_car subway aircraft wheelchair scooter drone" speed="3.65" length="1.44" shape="586.62,138.40 585.18,138.32"/>
    </edge>
    <edge id=":226013947_15" function="internal">
        <lane id=":226013947_15_0" index="0" disallow="tram rail_urban rail rail_electric rail_fast ship container cable_car subway aircraft wheelchair scooter drone" speed="3.65" length="3.23" shape="585.18,138.32 584.43,137.83 584.37,136.94 585.00,135.64"/>
    </edge>
    <edge id=":226013947_9" function="internal">
        <lane id=":226013947_9_0" index="0" disallow="tram rail_urban rail rail_electric rail_fast ship container cable_car subway aircraft wheelchair scooter drone" speed="6.49" length="9.03" shape="577.36,133.62 578.89,135.57 580.67,136.56 582.71,136.58 585.00,135.64"/>
    </edge>
    <edge id=":226013947_10" function="internal">
        <lane id=":226013947_10_0" index="0" disallow="tram rail_urban rail rail_electric rail_fast ship container cable_car subway aircraft wheelchair scooter drone" speed="8.33" length="14.51" shape="577.36,133.62 584.50,146.25"/>
    </edge>
    <edge id=":226013947_11" function="internal">
        <lane id=":226013947_11_0" index="0" disallow="tram rail_urban rail rail_electric rail_fast ship container cable_car subway aircraft wheelchair scooter drone" speed="7.35" length="2.62" shape="577.36,133.62 578.10,136.03 578.08,136.13"/>
    </edge>
    <edge id=":226013947_12" function="internal">
        <lane id=":226013947_12_0" index="0" disallow="tram rail_urban rail rail_electric rail_fast ship container cable_car subway aircraft wheelchair scooter drone" speed="3.65" length="1.44" shape="577.36,133.62 577.26,135.06"/>
    </edge>
    <edge id=":226013947_16" function="internal">
        <lane id=":226013947_16_0" index="0" disallow="tram rail_urban rail rail_electric rail_fast ship container cable_car subway aircraft wheelchair scooter drone" speed="7.35" length="9.17" shape="578.08,136.13 577.54,138.38 575.67,140.68 572.50,142.93"/>
    </edge>
    <edge id=":226013947_17" function="internal">
        <lane id=":226013947_17_0" index="0" disallow="tram rail_urban rail rail_electric rail_fast ship container cable_car subway aircraft wheelchair scooter drone" speed="3.65" length="3.23" shape="577.26,135.06 576.77,135.81 575.88,135.86 574.58,135.22"/>
    </edge>
    <edge id=":226020212_0" function="internal">
        <lane id=":226020212_0_0" index="0" disallow="tram rail_urban rail rail_electric rail_fast ship container cable_car subway aircraft wheelchair scooter drone" speed="6.51" length="8.96" shape="846.08,75.10 844.57,73.16 842.81,72.17 840.78,72.12 838.49,73.00"/>
    </edge>
    <edge id=":226020212_1" function="internal">
        <lane id=":226020212_1_0" index="0" disallow="tram rail_urban rail rail_electric rail_fast ship container cable_car subway aircraft wheelchair scooter drone" speed="3.65" length="4.67" shape="846.08,75.10 846.18,73.66 846.67,72.91 847.57,72.86 848.86,73.50"/>
    </edge>
    <edge id=":2282370899_0" function="internal">
        <lane id=":2282370899_0_0" index="0" disallow="tram rail_urban rail rail_electric rail_fast ship container cable_car subway aircraft wheelchair scooter drone" speed="8.33" length="9.49" shape="459.88,326.27 464.60,334.51"/>
    </edge>
    <edge id=":2282370899_1" function="internal">
        <lane id=":2282370899_1_0" index="0" disallow="tram rail_urban rail rail_electric rail_fast ship container cable_car subway aircraft wheelchair scooter drone" speed="6.11" length="7.87" shape="459.88,326.27 461.15,328.73 461.65,330.73 461.39,332.27 460.37,333.35"/>
    </edge>
    <edge id=":2282370899_2" function="internal">
        <lane id=":2282370899_2_0" index="0" disallow="tram rail_urban rail rail_electric rail_fast ship container cable_car subway aircraft wheelchair scooter drone" speed="6.03" length="7.90" shape="458.71,330.61 460.16,330.20 461.62,330.72 463.10,332.16 464.60,334.51"/>
    </edge>
    <edge id=":2282370899_3" function="internal">
        <lane id=":2282370899_3_0" index="0" disallow="tram rail_urban rail rail_electric rail_fast ship container cable_car subway aircraft wheelchair scooter drone" speed="3.65" length="4.67" shape="458.71,330.61 460.16,330.67 460.91,331.15 460.98,332.04 460.37,333.35"/>
    </edge>
    <edge id=":2282370901_0" function="internal">
        <lane id=":2282370901_0_0" index="0" disallow="tram rail_urban rail rail_electric rail_fast ship container cable_car subway aircraft wheelchair scooter drone" speed="6.51" length="8.93" shape="438.49,432.30 436.96,430.40 435.19,429.43 433.17,429.39 430.89,430.29"/>
    </edge>
    <edge id=":2282370901_1" function="internal">
        <lane id=":2282370901_1_0" index="0" disallow="tram rail_urban rail rail_electric rail_fast ship container cable_car subway aircraft wheelchair scooter drone" speed="8.33" length="14.35" shape="438.49,432.30 431.42,419.82"/>
    </edge>
    <edge id=":2282370901_2" function="internal">
        <lane id=":2282370901_2_0" index="0" disallow="tram rail_urban rail rail_electric rail_fast ship container cable_car subway aircraft wheelchair scooter drone" speed="7.40" length="11.78" shape="438.49,432.30 436.85,428.83 436.37,425.93 437.06,423.59 438.90,421.81"/>
    </edge>
    <edge id=":2282370901_3" function="internal">
        <lane id=":2282370901_3_0" index="0" disallow="tram rail_urban rail rail_electric rail_fast ship container cable_car subway aircraft wheelchair scooter drone" speed="8.33" length="11.27" shape="440.58,424.53 430.89,430.29"/>
    </edge>
    <edge id=":2282370901_4" function="internal">
        <lane id=":2282370901_4_0" index="0" disallow="tram rail_urban rail rail_electric rail_fast ship container cable_car subway aircraft wheelchair scooter drone" speed="7.18" length="11.74" shape="440.58,424.53 438.15,425.38 435.82,424.88 433.58,423.03 431.42,419.82"/>
    </edge>
    <edge id=":2282370901_5" function="internal">
        <lane id=":2282370901_5_0" index="0" disallow="tram rail_urban rail rail_electric rail_fast ship container cable_car subway aircraft wheelchair scooter drone" speed="3.65" length="4.67" shape="440.58,424.53 439.14,424.48 438.38,424.01 438.30,423.12 438.90,421.81"/>
    </edge>
    <edge id=":2282370901_6" function="internal">
        <lane id=":2282370901_6_0" index="0" disallow="tram rail_urban rail rail_electric rail_fast ship container cable_car subway aircraft wheelchair scooter drone" speed="6.57" length="9.06" shape="429.31,427.51 431.24,426.00 432.24,424.22 432.30,422.16 431.42,419.82"/>
    </edge>
    <edge id=":2282370901_7" function="internal">
        <lane id=":2282370901_7_0" index="0" disallow="tram rail_urban rail rail_electric rail_fast ship container cable_car subway aircraft wheelchair scooter drone" speed="8.33" length="11.16" shape="429.31,427.51 438.90,421.81"/>
    </edge>
    <edge id=":2282370901_8" function="internal">
        <lane id=":2282370901_8_0" index="0" disallow="tram rail_urban rail rail_electric rail_fast ship container cable_car subway aircraft wheelchair scooter drone" speed="3.65" length="4.67" shape="429.31,427.51 430.75,427.61 431.49,428.11 431.54,429.00 430.89,430.29"/>
    </edge>
    <edge id=":246450884_0" function="internal">
        <lane id=":246450884_0_0" index="0" disallow="tram rail_urban rail rail_electric rail_fast ship container cable_car subway aircraft wheelchair scooter drone" speed="6.51" length="9.01" shape="740.76,426.40 739.25,424.46 737.47,423.47 735.43,423.42 733.13,424.32"/>
    </edge>
    <edge id=":246450884_1" function="internal">
        <lane id=":246450884_1_0" index="0" disallow="tram rail_urban rail rail_electric rail_fast ship container cable_car subway aircraft wheelchair scooter drone" speed="8.33" length="11.41" shape="740.76,426.40 735.10,416.50"/>
    </edge>
    <edge id=":246450884_2" function="internal">
        <lane id=":246450884_2_0" index="0" disallow="tram rail_urban rail rail_electric rail_fast ship container cable_car subway aircraft wheelchair scooter drone" speed="3.65" length="1.44" shape="740.76,426.40 740.86,424.96"/>
    </edge>
    <edge id=":246450884_9" function="internal">
        <lane id=":246450884_9_0" index="0" disallow="tram rail_urban rail rail_electric rail_fast ship container cable_car subway aircraft wheelchair scooter drone" speed="3.65" length="3.23" shape="740.86,424.96 741.35,424.22 742.25,424.16 743.54,424.81"/>
    </edge>
    <edge id=":246450884_3" function="internal">
        <lane id=":246450884_3_0" index="0" disallow="tram rail_urban rail rail_electric rail_fast ship container cable_car subway aircraft wheelchair scooter drone" speed="6.81" length="9.39" shape="745.42,416.65 743.54,418.37 742.59,420.30 742.59,422.45 743.54,424.81"/>
    </edge>
    <edge id=":246450884_4" function="internal">
        <lane id=":246450884_4_0" index="0" disallow="tram rail_urban rail rail_electric rail_fast ship container cable_car subway aircraft wheelchair scooter drone" speed="8.33" length="14.49" shape="745.42,416.65 733.13,424.32"/>
    </edge>
    <edge id=":246450884_5" function="internal">
        <lane id=":246450884_5_0" index="0" disallow="tram rail_urban rail rail_electric rail_fast ship container cable_car subway aircraft wheelchair scooter drone" speed="7.16" length="11.84" shape="745.42,416.65 742.02,418.53 739.16,419.13 736.85,418.45 735.10,416.50"/>
    </edge>
    <edge id=":246450884_6" function="internal">
        <lane id=":246450884_6_0" index="0" disallow="tram rail_urban rail rail_electric rail_fast ship container cable_car subway aircraft wheelchair scooter drone" speed="8.33" length="11.40" shape="737.87,414.91 743.54,424.81"/>
    </edge>
    <edge id=":246450884_7" function="internal">
        <lane id=":246450884_7_0" index="0" disallow="tram rail_urban rail rail_electric rail_fast ship container cable_car subway aircraft wheelchair scooter drone" speed="7.36" length="2.61" shape="737.87,414.91 738.66,417.41"/>
    </edge>
    <edge id=":246450884_8" function="internal">
        <lane id=":246450884_8_0" index="0" disallow="tram rail_urban rail rail_electric rail_fast ship container cable_car subway aircraft wheelchair scooter drone" speed="3.65" length="1.44" shape="737.87,414.91 737.77,416.35"/>
    </edge>
    <edge id=":246450884_10" function="internal">
        <lane id=":246450884_10_0" index="0" disallow="tram rail_urban rail rail_electric rail_fast ship container cable_car subway aircraft wheelchair scooter drone" speed="7.36" length="9.27" shape="738.66,417.41 738.14,419.80 736.29,422.11 733.13,424.32"/>
    </edge>
    <edge id=":246450884_11" function="internal">
        <lane id=":246450884_11_0" index="0" disallow="tram rail_urban rail rail_electric rail_fast ship container cable_car subway aircraft wheelchair scooter drone" speed="3.65" length="3.23" shape="737.77,416.35 737.28,417.10 736.38,417.14 735.10,416.50"/>
    </edge>
    <edge id=":246453400_0" function="internal">
        <lane id=":246453400_0_0" index="0" disallow="tram rail_urban rail rail_electric rail_fast ship container cable_car subway aircraft wheelchair scooter drone" speed="6.47" length="9.03" shape="424.52,254.83 422.53,256.31 421.50,258.06 421.44,260.10 422.35,262.41"/>
    </edge>
    <edge id=":246453400_1" function="internal">
        <lane id=":246453400_1_0" index="0" disallow="tram rail_urban rail rail_electric rail_fast ship container cable_car subway aircraft wheelchair scooter drone" speed="8.33" length="11.28" shape="424.52,254.83 414.71,260.30"/>
        <lane id=":246453400_1_1" index="1" disallow="tram rail_urban rail rail_electric rail_fast ship container cable_car subway aircraft wheelchair scooter drone" speed="8.33" length="11.28" shape="422.99,252.01 413.11,257.53"/>
    </edge>
    <edge id=":246453400_3" function="internal">
        <lane id=":246453400_3_0" index="0" disallow="tram rail_urban rail rail_electric rail_fast ship container cable_car subway aircraft wheelchair scooter drone" speed="8.33" length="14.41" shape="415.28,249.85 422.35,262.41"/>
    </edge>
    <edge id=":246453400_4" function="internal">
        <lane id=":246453400_4_0" index="0" disallow="tram rail_urban rail rail_electric rail_fast ship container cable_car subway aircraft wheelchair scooter drone" speed="6.55" length="9.08" shape="415.28,249.85 416.17,252.16 416.10,254.20 415.08,256.00 413.11,257.53"/>
    </edge>
    <edge id=":246453401_0" function="internal">